*SPEF "ieee 1481-1999"
*DESIGN "pes_brg"
*DATE "11:11:11 Fri 11 11, 1111"
*VENDOR "OpenRCX"
*PROGRAM "Parallel Extraction"
*VERSION "1.0"
*DESIGN_FLOW "NAME_SCOPE LOCAL" "PIN_CAP NONE"
*DIVIDER /
*DELIMITER :
*BUS_DELIMITER []
*T_UNIT 1 NS
*C_UNIT 1 PF
*R_UNIT 1 OHM
*L_UNIT 1 HENRY

*NAME_MAP
*3 clk
*4 clkout
*5 reset
*6 sel[0]
*7 sel[1]
*8 _000_
*9 _001_
*10 _002_
*11 _003_
*12 _004_
*13 _005_
*14 _006_
*15 _007_
*16 _008_
*17 _009_
*18 _010_
*19 _011_
*20 _012_
*21 _013_
*22 _014_
*23 _015_
*24 _016_
*25 _017_
*26 _018_
*27 _019_
*28 _020_
*29 _021_
*30 _022_
*31 _023_
*32 _024_
*33 _025_
*34 _026_
*35 _027_
*36 _028_
*37 _029_
*38 _030_
*39 _031_
*40 _032_
*41 _033_
*42 _034_
*43 _035_
*44 _036_
*45 _037_
*46 _038_
*47 _039_
*48 _040_
*49 _041_
*50 _042_
*51 _043_
*52 _044_
*53 _045_
*54 _046_
*55 _047_
*56 _048_
*57 _049_
*58 _050_
*59 _051_
*60 _052_
*61 _053_
*62 _054_
*63 _055_
*64 _056_
*65 _057_
*66 _058_
*67 _059_
*68 _060_
*69 _061_
*70 _062_
*71 _063_
*72 _064_
*73 _065_
*74 _066_
*75 _067_
*76 _068_
*77 _069_
*78 _070_
*79 _071_
*80 _072_
*81 _073_
*82 _074_
*83 _075_
*84 _076_
*85 _077_
*86 _078_
*87 _079_
*88 _080_
*89 _081_
*90 _082_
*91 _083_
*92 _084_
*93 _085_
*94 _086_
*95 _087_
*96 _088_
*97 _089_
*98 _090_
*99 _091_
*100 _092_
*101 _093_
*102 _094_
*103 _095_
*104 _096_
*105 _097_
*106 _098_
*107 _099_
*108 _100_
*109 _101_
*110 _102_
*111 clknet_0_clk
*112 clknet_1_0__leaf_clk
*113 clknet_1_1__leaf_clk
*114 cnt1\[0\]
*115 cnt1\[1\]
*116 cnt1\[2\]
*117 cnt1\[3\]
*118 cnt1\[4\]
*119 cnt1\[5\]
*120 cnt2\[0\]
*121 cnt2\[1\]
*122 cnt3\[0\]
*123 cnt3\[1\]
*124 cnt3\[2\]
*125 cnt4\[0\]
*126 cnt4\[1\]
*127 cnt4\[2\]
*128 cnt4\[3\]
*129 net1
*130 net13
*131 net14
*132 net15
*133 net16
*134 net17
*135 net2
*136 net20
*137 net21
*138 net22
*139 net23
*140 net24
*141 net3
*142 net4
*143 net5
*144 net6
*145 net7
*146 net9
*147 FILLER_0_0_19
*148 FILLER_0_0_27
*149 FILLER_0_0_3
*150 FILLER_0_0_37
*151 FILLER_0_0_57
*152 FILLER_0_0_76
*153 FILLER_0_0_85
*154 FILLER_0_10_18
*155 FILLER_0_10_3
*156 FILLER_0_10_32
*157 FILLER_0_10_38
*158 FILLER_0_10_47
*159 FILLER_0_10_79
*160 FILLER_0_10_83
*161 FILLER_0_10_85
*162 FILLER_0_11_27
*163 FILLER_0_12_27
*164 FILLER_0_12_42
*165 FILLER_0_12_55
*166 FILLER_0_12_72
*167 FILLER_0_12_83
*168 FILLER_0_12_85
*169 FILLER_0_13_84
*170 FILLER_0_14_11
*171 FILLER_0_14_19
*172 FILLER_0_14_27
*173 FILLER_0_14_3
*174 FILLER_0_14_40
*175 FILLER_0_14_48
*176 FILLER_0_14_63
*177 FILLER_0_14_78
*178 FILLER_0_14_85
*179 FILLER_0_1_3
*180 FILLER_0_1_37
*181 FILLER_0_1_54
*182 FILLER_0_1_82
*183 FILLER_0_2_26
*184 FILLER_0_2_29
*185 FILLER_0_2_54
*186 FILLER_0_2_63
*187 FILLER_0_2_7
*188 FILLER_0_2_81
*189 FILLER_0_2_85
*190 FILLER_0_3_27
*191 FILLER_0_3_48
*192 FILLER_0_3_57
*193 FILLER_0_3_72
*194 FILLER_0_3_81
*195 FILLER_0_3_85
*196 FILLER_0_4_29
*197 FILLER_0_4_3
*198 FILLER_0_4_61
*199 FILLER_0_4_82
*200 FILLER_0_4_85
*201 FILLER_0_5_32
*202 FILLER_0_5_71
*203 FILLER_0_5_84
*204 FILLER_0_6_29
*205 FILLER_0_6_55
*206 FILLER_0_6_83
*207 FILLER_0_6_85
*208 FILLER_0_7_17
*209 FILLER_0_7_64
*210 FILLER_0_8_39
*211 FILLER_0_8_85
*212 FILLER_0_9_44
*213 FILLER_0_9_85
*214 PHY_EDGE_ROW_0_Left_15
*215 PHY_EDGE_ROW_0_Right_0
*216 PHY_EDGE_ROW_10_Left_25
*217 PHY_EDGE_ROW_10_Right_10
*218 PHY_EDGE_ROW_11_Left_26
*219 PHY_EDGE_ROW_11_Right_11
*220 PHY_EDGE_ROW_12_Left_27
*221 PHY_EDGE_ROW_12_Right_12
*222 PHY_EDGE_ROW_13_Left_28
*223 PHY_EDGE_ROW_13_Right_13
*224 PHY_EDGE_ROW_14_Left_29
*225 PHY_EDGE_ROW_14_Right_14
*226 PHY_EDGE_ROW_1_Left_16
*227 PHY_EDGE_ROW_1_Right_1
*228 PHY_EDGE_ROW_2_Left_17
*229 PHY_EDGE_ROW_2_Right_2
*230 PHY_EDGE_ROW_3_Left_18
*231 PHY_EDGE_ROW_3_Right_3
*232 PHY_EDGE_ROW_4_Left_19
*233 PHY_EDGE_ROW_4_Right_4
*234 PHY_EDGE_ROW_5_Left_20
*235 PHY_EDGE_ROW_5_Right_5
*236 PHY_EDGE_ROW_6_Left_21
*237 PHY_EDGE_ROW_6_Right_6
*238 PHY_EDGE_ROW_7_Left_22
*239 PHY_EDGE_ROW_7_Right_7
*240 PHY_EDGE_ROW_8_Left_23
*241 PHY_EDGE_ROW_8_Right_8
*242 PHY_EDGE_ROW_9_Left_24
*243 PHY_EDGE_ROW_9_Right_9
*244 TAP_TAPCELL_ROW_0_30
*245 TAP_TAPCELL_ROW_0_31
*246 TAP_TAPCELL_ROW_0_32
*247 TAP_TAPCELL_ROW_10_46
*248 TAP_TAPCELL_ROW_10_47
*249 TAP_TAPCELL_ROW_11_48
*250 TAP_TAPCELL_ROW_12_49
*251 TAP_TAPCELL_ROW_12_50
*252 TAP_TAPCELL_ROW_13_51
*253 TAP_TAPCELL_ROW_14_52
*254 TAP_TAPCELL_ROW_14_53
*255 TAP_TAPCELL_ROW_14_54
*256 TAP_TAPCELL_ROW_1_33
*257 TAP_TAPCELL_ROW_2_34
*258 TAP_TAPCELL_ROW_2_35
*259 TAP_TAPCELL_ROW_3_36
*260 TAP_TAPCELL_ROW_4_37
*261 TAP_TAPCELL_ROW_4_38
*262 TAP_TAPCELL_ROW_5_39
*263 TAP_TAPCELL_ROW_6_40
*264 TAP_TAPCELL_ROW_6_41
*265 TAP_TAPCELL_ROW_7_42
*266 TAP_TAPCELL_ROW_8_43
*267 TAP_TAPCELL_ROW_8_44
*268 TAP_TAPCELL_ROW_9_45
*269 _103_
*270 _104_
*271 _105_
*272 _106_
*273 _107_
*274 _108_
*275 _109_
*276 _110_
*277 _111_
*278 _112_
*279 _113_
*280 _114_
*281 _115_
*282 _116_
*283 _117_
*284 _118_
*285 _119_
*286 _120_
*287 _121_
*288 _122_
*289 _123_
*290 _124_
*291 _125_
*292 _126_
*293 _127_
*294 _128_
*295 _129_
*296 _130_
*297 _131_
*298 _132_
*299 _133_
*300 _134_
*301 _135_
*302 _136_
*303 _137_
*304 _138_
*305 _139_
*306 _140_
*307 _141_
*308 _142_
*309 _143_
*310 _144_
*311 _145_
*312 _146_
*313 _147_
*314 _148_
*315 _149_
*316 _150_
*317 _151_
*318 _152_
*319 _153_
*320 _154_
*321 _155_
*322 _156_
*323 _157_
*324 _158_
*325 _159_
*326 _160_
*327 _161_
*328 _162_
*329 _163_
*330 _164_
*331 _165_
*332 _166_
*333 _167_
*334 _168_
*335 _169_
*336 _170_
*337 _171_
*338 _172_
*339 _173_
*340 _174_
*341 _175_
*342 _176_
*343 _177_
*344 _178_
*345 _179_
*346 _180_
*347 _181_
*348 _182_
*349 _183_
*350 _184_
*351 _185_
*352 _186_
*353 _187_
*354 _188_
*355 _189_
*356 _190_
*357 _191_
*358 _192_
*359 _193_
*360 _194_
*361 _195_
*362 _196_
*363 _197_
*364 _198_
*365 _199_
*366 _200_
*367 _201_
*368 _202_
*369 _203_
*370 _204_
*371 _205_
*372 _206_
*373 _207_
*374 _208_
*375 _209_
*376 _210_
*377 _211_
*378 _212_
*379 _213_
*380 _214_
*381 _215_
*382 _216_
*383 _217_
*384 _218_
*385 _219_
*386 _220_
*387 _221_
*388 clkbuf_0_clk
*389 clkbuf_1_0__f_clk
*390 clkbuf_1_1__f_clk
*391 clone2
*392 hold10
*393 hold11
*394 hold12
*395 hold13
*396 hold16
*397 hold17
*398 hold18
*399 hold19
*400 hold2
*401 hold20
*402 hold9
*403 input1
*404 input2
*405 input3
*406 output4
*407 rebuffer1
*408 rebuffer3

*PORTS
clk I
clkout O
reset I
sel[0] I
sel[1] I

*D_NET *3 0.00644622
*CONN
*P clk I
*I *388:A I *D sky130_fd_sc_hd__clkbuf_16
*CAP
1 clk 0.00217678
2 *388:A 0.00217678
3 *388:A *270:B 5.79295e-05
4 *388:A *332:B1 1.98218e-05
5 *388:A *333:B1 0.000139665
6 *388:A *365:C 0.000192267
7 *388:A *382:D 0.000325769
8 *388:A *391:A 0.00011891
9 *388:A *24:35 0.000122806
10 *388:A *56:16 4.88066e-05
11 *388:A *72:12 0.000143161
12 *388:A *107:98 0.000336247
13 *388:A *113:14 0.000102027
14 *388:A *119:10 0.000323434
15 *388:A *119:12 0.000161814
*RES
1 clk *388:A 34.7689 
*END

*D_NET *4 0.00132083
*CONN
*P clkout O
*I *406:X O *D sky130_fd_sc_hd__clkbuf_4
*CAP
1 clkout 0.000602035
2 *406:X 0.000602035
3 clkout *302:B1 0.000116764
*RES
1 *406:X clkout 24.3 
*END

*D_NET *5 0.00220925
*CONN
*P reset I
*I *403:A I *D sky130_fd_sc_hd__buf_2
*CAP
1 reset 0.000663768
2 *403:A 0.000663768
3 *403:A *318:B 2.29917e-05
4 *403:A *378:CLK 0.000165158
5 *403:A *386:CLK 0.000224561
6 *403:A *404:A 3.9512e-05
7 *403:A *107:10 4.42555e-05
8 *403:A *112:27 0.000385235
*RES
1 reset *403:A 30.4258 
*END

*D_NET *6 0.00289804
*CONN
*P sel[0] I
*I *404:A I *D sky130_fd_sc_hd__clkbuf_2
*CAP
1 sel[0] 0.00109117
2 *404:A 0.00109117
3 *404:A *356:A1 2.12087e-05
4 *404:A *356:A2 8.45942e-05
5 *404:A *356:B1 9.99853e-05
6 *404:A *385:D 0.000147221
7 *404:A *386:D 0.000151304
8 *404:A *43:28 0
9 *404:A *107:10 8.19877e-05
10 *404:A *112:27 0
11 *404:A *129:12 8.98897e-05
12 *404:A *135:26 0
13 *403:A *404:A 3.9512e-05
*RES
1 sel[0] *404:A 32.5218 
*END

*D_NET *7 0.0014406
*CONN
*P sel[1] I
*I *405:A I *D sky130_fd_sc_hd__buf_1
*CAP
1 sel[1] 0.00059757
2 *405:A 0.00059757
3 *405:A *361:A1_N 5.71472e-05
4 *405:A *361:B1 0.00018831
*RES
1 sel[1] *405:A 25.2464 
*END

*D_NET *8 0.00122144
*CONN
*I *372:D I *D sky130_fd_sc_hd__dfxtp_2
*I *279:X O *D sky130_fd_sc_hd__o21a_1
*CAP
1 *372:D 0.000378042
2 *279:X 0.000378042
3 *372:D *279:A2 0.000137983
4 *372:D *279:B1 2.78898e-05
5 *372:D *292:C 9.36325e-05
6 *372:D *303:A 7.6644e-05
7 *372:D *315:A 1.30891e-05
8 *372:D *372:CLK 0.00011612
*RES
1 *279:X *372:D 33.408 
*END

*D_NET *9 0.00138417
*CONN
*I *373:D I *D sky130_fd_sc_hd__dfxtp_2
*I *288:Y O *D sky130_fd_sc_hd__o2bb2ai_1
*CAP
1 *373:D 0.000355573
2 *288:Y 0.000355573
3 *373:D *361:B2 9.2164e-05
4 *373:D *82:24 7.74135e-05
5 *373:D *112:58 0.000318329
6 *373:D *112:65 0.000185118
*RES
1 *288:Y *373:D 35.1759 
*END

*D_NET *10 0.00084567
*CONN
*I *374:D I *D sky130_fd_sc_hd__dfxtp_1
*I *296:Y O *D sky130_fd_sc_hd__o21ai_1
*CAP
1 *374:D 0.000194524
2 *296:Y 0.000194524
3 *374:D *279:A2 1.76204e-05
4 *374:D *296:A1 6.96806e-05
5 *374:D *303:A 0.000175551
6 *374:D *344:C 0.000173844
7 *374:D *101:10 1.99271e-05
*RES
1 *296:Y *374:D 32.1937 
*END

*D_NET *11 0.00157714
*CONN
*I *375:D I *D sky130_fd_sc_hd__dfxtp_1
*I *300:Y O *D sky130_fd_sc_hd__o2bb2ai_1
*CAP
1 *375:D 0.000613891
2 *300:Y 0.000613891
3 *375:D *300:A1_N 3.5848e-05
4 *375:D *300:B1 0.000311121
5 *375:D *128:8 0
6 *375:D *141:18 2.38651e-06
*RES
1 *300:Y *375:D 38.2473 
*END

*D_NET *12 0.000839979
*CONN
*I *376:D I *D sky130_fd_sc_hd__dfxtp_1
*I *311:Y O *D sky130_fd_sc_hd__a32oi_1
*CAP
1 *376:D 0.000190018
2 *311:Y 0.000190018
3 *376:D *311:A1 0.000150773
4 *376:D *311:B1 6.21609e-05
5 *376:D *311:B2 3.9733e-05
6 *376:D *113:10 2.47755e-05
7 *376:D *113:12 0.0001825
*RES
1 *311:Y *376:D 32.3187 
*END

*D_NET *13 0.00339658
*CONN
*I *377:D I *D sky130_fd_sc_hd__dfxtp_2
*I *314:X O *D sky130_fd_sc_hd__clkbuf_1
*CAP
1 *377:D 0.00103595
2 *314:X 0.00103595
3 *377:D *271:A 3.67279e-06
4 *377:D *272:A 0.000149786
5 *377:D *305:A 0.000120532
6 *377:D *306:B 7.87879e-05
7 *377:D *316:A 5.33005e-05
8 *377:D *316:B 0.000111425
9 *377:D *319:A4 0.000136733
10 *377:D *355:A1 3.71362e-05
11 *377:D *356:B1 4.45982e-06
12 *377:D *44:18 5.74562e-05
13 *377:D *48:6 5.33334e-05
14 *377:D *63:71 1.32293e-05
15 *377:D *67:21 1.87331e-05
16 *377:D *104:28 0.000420034
17 *377:D *107:28 6.14702e-06
18 *377:D *107:30 3.71318e-05
19 *377:D *114:6 2.27766e-05
*RES
1 *314:X *377:D 49.5687 
*END

*D_NET *14 0.00124088
*CONN
*I *378:D I *D sky130_fd_sc_hd__dfxtp_1
*I *319:X O *D sky130_fd_sc_hd__a41o_1
*CAP
1 *378:D 0.000397754
2 *319:X 0.000397754
3 *378:D *319:A1 9.83442e-05
4 *378:D *319:B1 9.83442e-05
5 *378:D *369:B 0.000111444
6 *378:D *43:28 3.02691e-05
7 *378:D *104:28 5.20212e-05
8 *378:D *129:40 5.49544e-05
*RES
1 *319:X *378:D 35.3723 
*END

*D_NET *15 0.000550012
*CONN
*I *379:D I *D sky130_fd_sc_hd__dfxtp_2
*I *322:X O *D sky130_fd_sc_hd__a2bb2o_1
*CAP
1 *379:D 9.26628e-05
2 *322:X 9.26628e-05
3 *379:D *322:A1_N 5.49995e-05
4 *379:D *325:A3 7.99677e-06
5 *379:D *116:29 0.00014925
6 *379:D *143:10 0.00015244
*RES
1 *322:X *379:D 30.2473 
*END

*D_NET *16 0.000526837
*CONN
*I *380:D I *D sky130_fd_sc_hd__dfxtp_1
*I *325:X O *D sky130_fd_sc_hd__a32o_1
*CAP
1 *380:D 0.000146777
2 *325:X 0.000146777
3 *380:D *325:A2 0.000101388
4 *380:D *325:A3 2.89114e-05
5 *380:D *379:CLK 0.000102983
*RES
1 *325:X *380:D 30.283 
*END

*D_NET *17 0.000972231
*CONN
*I *381:D I *D sky130_fd_sc_hd__dfxtp_1
*I *328:X O *D sky130_fd_sc_hd__a32o_1
*CAP
1 *381:D 0.000169691
2 *328:X 0.000169691
3 *381:D *323:C 0.000125412
4 *381:D *364:A 6.99587e-05
5 *381:D *57:8 0
6 *381:D *113:18 0.000360482
7 *381:D *117:58 7.6997e-05
*RES
1 *328:X *381:D 32.9973 
*END

*D_NET *18 0.00143676
*CONN
*I *382:D I *D sky130_fd_sc_hd__dfxtp_1
*I *333:X O *D sky130_fd_sc_hd__o22a_1
*CAP
1 *382:D 0.000312544
2 *333:X 0.000312544
3 *382:D *328:B1 0
4 *382:D *332:B1 0.000122765
5 *382:D *113:14 0.000363138
6 *388:A *382:D 0.000325769
*RES
1 *333:X *382:D 35.4259 
*END

*D_NET *19 0.000462724
*CONN
*I *383:D I *D sky130_fd_sc_hd__dfxtp_1
*I *340:Y O *D sky130_fd_sc_hd__a21oi_1
*CAP
1 *383:D 0.000131845
2 *340:Y 0.000131845
3 *383:D *337:A 0.00015018
4 *383:D *32:10 4.88537e-05
*RES
1 *340:Y *383:D 30.3188 
*END

*D_NET *20 0.000637056
*CONN
*I *384:D I *D sky130_fd_sc_hd__dfxtp_1
*I *345:Y O *D sky130_fd_sc_hd__o2bb2ai_1
*CAP
1 *384:D 0.000159518
2 *345:Y 0.000159518
3 *384:D *345:A1_N 3.50166e-05
4 *384:D *345:B1 9.41642e-05
5 *384:D *384:CLK 1.98839e-05
6 *384:D *121:6 7.28627e-05
7 *384:D *121:12 9.60939e-05
*RES
1 *345:Y *384:D 21.8902 
*END

*D_NET *21 0.000776651
*CONN
*I *385:D I *D sky130_fd_sc_hd__dfxtp_1
*I *350:Y O *D sky130_fd_sc_hd__o21ai_1
*CAP
1 *385:D 0.000208749
2 *350:Y 0.000208749
3 *385:D *350:B1 5.65955e-05
4 *385:D *112:12 4.87669e-06
5 *385:D *129:12 0.000150459
6 *404:A *385:D 0.000147221
*RES
1 *350:Y *385:D 31.4795 
*END

*D_NET *22 0.000476279
*CONN
*I *386:D I *D sky130_fd_sc_hd__dfxtp_1
*I *356:Y O *D sky130_fd_sc_hd__o21ai_1
*CAP
1 *386:D 0.00013501
2 *356:Y 0.00013501
3 *386:D *356:A1 5.49544e-05
4 *404:A *386:D 0.000151304
*RES
1 *356:Y *386:D 30.2473 
*END

*D_NET *23 0.000328369
*CONN
*I *387:D I *D sky130_fd_sc_hd__dfxtp_1
*I *361:Y O *D sky130_fd_sc_hd__o2bb2ai_1
*CAP
1 *387:D 8.55359e-05
2 *361:Y 8.55359e-05
3 *387:D *361:B2 0.000153019
4 *387:D *375:CLK 0
5 *387:D *112:58 4.27842e-06
*RES
1 *361:Y *387:D 29.7116 
*END

*D_NET *24 0.00376141
*CONN
*I *332:A2 I *D sky130_fd_sc_hd__o211a_1
*I *326:B I *D sky130_fd_sc_hd__or2_1
*I *325:A2 I *D sky130_fd_sc_hd__a32o_1
*I *323:Y O *D sky130_fd_sc_hd__nand4_1
*CAP
1 *332:A2 0
2 *326:B 8.0525e-05
3 *325:A2 0.00010097
4 *323:Y 9.3578e-05
5 *24:35 0.00112546
6 *24:10 0.00123948
7 *325:A2 *325:A3 1.33343e-05
8 *325:A2 *379:CLK 6.73707e-06
9 *325:A2 *67:71 9.99644e-06
10 *325:A2 *116:42 0.000113056
11 *326:B *326:A 0
12 *326:B *332:C1 3.2919e-06
13 *326:B *56:20 0.000210844
14 *326:B *80:54 1.98839e-05
15 *326:B *80:56 6.81704e-05
16 *24:10 *323:C 2.85234e-05
17 *24:10 *379:CLK 6.73707e-06
18 *24:10 *113:26 8.01554e-05
19 *24:10 *116:42 0.000161058
20 *24:35 *332:B1 2.16899e-05
21 *24:35 *56:32 4.64488e-06
22 *24:35 *80:79 0.000149073
23 *380:D *325:A2 0.000101388
24 *388:A *24:35 0.000122806
*RES
1 *323:Y *24:10 16.4339 
2 *24:10 *325:A2 16.2554 
3 *24:10 *24:35 14.4639 
4 *24:35 *326:B 11.4964 
5 *24:35 *332:A2 9.3 
*END

*D_NET *25 0.0025169
*CONN
*I *325:A3 I *D sky130_fd_sc_hd__a32o_1
*I *324:X O *D sky130_fd_sc_hd__a31o_1
*CAP
1 *325:A3 0.000803374
2 *324:X 0.000803374
3 *325:A3 *365:D 0.000213112
4 *325:A3 *379:CLK 0.000342314
5 *325:A3 *67:71 1.92905e-05
6 *325:A3 *116:12 0.000185203
7 *325:A3 *116:75 9.99853e-05
8 *325:A2 *325:A3 1.33343e-05
9 *379:D *325:A3 7.99677e-06
10 *380:D *325:A3 2.89114e-05
*RES
1 *324:X *325:A3 42.2607 
*END

*D_NET *26 0.00176455
*CONN
*I *328:A2 I *D sky130_fd_sc_hd__a32o_1
*I *326:X O *D sky130_fd_sc_hd__or2_1
*CAP
1 *328:A2 0.00042932
2 *326:X 0.00042932
3 *328:A2 *328:A1 0.000182811
4 *328:A2 *328:A3 9.54798e-06
5 *328:A2 *328:B2 8.25843e-06
6 *328:A2 *80:54 0.000223461
7 *328:A2 *80:56 0.000399749
8 *328:A2 *117:58 2.5574e-05
9 *328:A2 *118:8 5.65022e-05
*RES
1 *326:X *328:A2 36.2607 
*END

*D_NET *27 0.000592515
*CONN
*I *328:A3 I *D sky130_fd_sc_hd__a32o_1
*I *327:X O *D sky130_fd_sc_hd__a41o_1
*CAP
1 *328:A3 0.000133057
2 *327:X 0.000133057
3 *328:A3 *325:B2 9.58181e-05
4 *328:A3 *328:B2 7.70035e-05
5 *328:A3 *117:14 7.14469e-05
6 *328:A3 *117:58 5.42764e-05
7 *328:A3 *118:8 1.83091e-05
8 *328:A2 *328:A3 9.54798e-06
*RES
1 *327:X *328:A3 30.1893 
*END

*D_NET *28 0.00170025
*CONN
*I *330:C I *D sky130_fd_sc_hd__and4_1
*I *329:X O *D sky130_fd_sc_hd__and3_1
*CAP
1 *330:C 0.00044336
2 *329:X 0.00044336
3 *330:C *274:A 2.83284e-06
4 *330:C *274:B 5.33005e-05
5 *330:C *274:C 1.78642e-05
6 *330:C *327:A1 5.05056e-05
7 *330:C *68:28 0.000185118
8 *330:C *70:18 0.000328016
9 *330:C *117:20 5.33005e-05
10 *330:C *117:29 0.000122591
*RES
1 *329:X *330:C 34.7429 
*END

*D_NET *29 0.000489937
*CONN
*I *333:A2 I *D sky130_fd_sc_hd__o22a_1
*I *330:X O *D sky130_fd_sc_hd__and4_1
*CAP
1 *333:A2 0.000149427
2 *330:X 0.000149427
3 *333:A2 *407:A 1.46231e-05
4 *333:A2 *56:32 7.79937e-05
5 *333:A2 *143:10 9.84673e-05
*RES
1 *330:X *333:A2 29.9929 
*END

*D_NET *30 0.00149458
*CONN
*I *333:B1 I *D sky130_fd_sc_hd__o22a_1
*I *331:X O *D sky130_fd_sc_hd__a21bo_1
*CAP
1 *333:B1 0.000511995
2 *331:X 0.000511995
3 *333:B1 *331:B1_N 5.20751e-05
4 *333:B1 *332:B1 5.33614e-05
5 *333:B1 *56:32 0
6 *333:B1 *107:98 9.76443e-05
7 *333:B1 *107:113 3.2033e-05
8 *333:B1 *119:42 9.58126e-05
9 *388:A *333:B1 0.000139665
*RES
1 *331:X *333:B1 35.1357 
*END

*D_NET *31 0.000497551
*CONN
*I *333:B2 I *D sky130_fd_sc_hd__o22a_1
*I *332:X O *D sky130_fd_sc_hd__o211a_1
*CAP
1 *333:B2 0.000144879
2 *332:X 0.000144879
3 *333:B2 *274:C 1.24368e-05
4 *333:B2 *327:A2 0
5 *333:B2 *56:32 8.00806e-05
6 *333:B2 *80:79 4.15914e-05
7 *333:B2 *119:42 7.36839e-05
*RES
1 *332:X *333:B2 30.85 
*END

*D_NET *32 0.00184862
*CONN
*I *340:A1 I *D sky130_fd_sc_hd__a21oi_1
*I *339:C1 I *D sky130_fd_sc_hd__a211oi_1
*I *335:A1 I *D sky130_fd_sc_hd__a21oi_1
*I *334:Y O *D sky130_fd_sc_hd__inv_2
*CAP
1 *340:A1 0
2 *339:C1 0.000139108
3 *335:A1 0.000152498
4 *334:Y 0.00010816
5 *32:10 0.000417974
6 *32:6 0.000234528
7 *335:A1 *337:A 6.37181e-06
8 *335:A1 *345:A1_N 0.000137983
9 *335:A1 *120:12 3.57738e-05
10 *335:A1 *121:50 2.20608e-05
11 *339:C1 *335:B1 4.97967e-05
12 *339:C1 *337:B 2.85321e-05
13 *339:C1 *345:A1_N 5.26493e-05
14 *339:C1 *393:A 9.67754e-05
15 *32:6 *334:A 5.49544e-05
16 *32:6 *340:A2 2.85321e-05
17 *32:10 *334:A 9.94093e-05
18 *32:10 *337:A 7.01808e-05
19 *32:10 *120:12 6.4474e-05
20 *383:D *32:10 4.88537e-05
*RES
1 *334:Y *32:6 10.6571 
2 *32:6 *32:10 8.57143 
3 *32:10 *335:A1 16.1929 
4 *32:10 *339:C1 16.8 
5 *32:6 *340:A1 9.3 
*END

*D_NET *33 0.000821282
*CONN
*I *337:B I *D sky130_fd_sc_hd__nand3_1
*I *335:Y O *D sky130_fd_sc_hd__a21oi_1
*CAP
1 *337:B 0.000139664
2 *335:Y 0.000139664
3 *337:B *337:A 0.000293268
4 *337:B *340:B1 6.9237e-05
5 *337:B *113:71 0.000150917
6 *339:C1 *337:B 2.85321e-05
*RES
1 *335:Y *337:B 31.9036 
*END

*D_NET *34 0.00266388
*CONN
*I *337:C I *D sky130_fd_sc_hd__nand3_1
*I *342:B I *D sky130_fd_sc_hd__nand3_1
*I *336:X O *D sky130_fd_sc_hd__o21a_1
*CAP
1 *337:C 0.000531857
2 *342:B 0.00019255
3 *336:X 0
4 *34:6 0.000724406
5 *337:C *302:B1 0.000199372
6 *337:C *338:B1 0
7 *337:C *339:A2 2.89791e-06
8 *337:C *340:B1 7.22344e-05
9 *337:C *341:B1 4.86936e-05
10 *337:C *345:A1_N 7.6997e-05
11 *337:C *345:B2 0.000154198
12 *337:C *113:71 9.37437e-05
13 *342:B *304:A1 0.000338712
14 *342:B *342:C 1.87331e-05
15 *342:B *344:A 0.000119649
16 *342:B *344:C 2.39415e-05
17 *342:B *345:B2 1.00887e-05
18 *342:B *63:133 1.00332e-05
19 *342:B *63:148 1.15916e-05
20 *342:B *113:73 3.41848e-05
*RES
1 *336:X *34:6 13.8 
2 *34:6 *342:B 18.6929 
3 *34:6 *337:C 24.0321 
*END

*D_NET *35 0.000380249
*CONN
*I *340:A2 I *D sky130_fd_sc_hd__a21oi_1
*I *337:Y O *D sky130_fd_sc_hd__nand3_1
*CAP
1 *340:A2 0.000162835
2 *337:Y 0.000162835
3 *340:A2 *340:B1 2.60464e-05
4 *32:6 *340:A2 2.85321e-05
*RES
1 *337:Y *340:A2 21.225 
*END

*D_NET *36 0.00137151
*CONN
*I *339:B1 I *D sky130_fd_sc_hd__a211oi_1
*I *341:B1 I *D sky130_fd_sc_hd__a21o_1
*I *338:Y O *D sky130_fd_sc_hd__o21ai_1
*CAP
1 *339:B1 6.89866e-05
2 *341:B1 0.000270226
3 *338:Y 0.000100461
4 *36:6 0.000439674
5 *339:B1 *335:B1 8.42609e-05
6 *341:B1 *338:B1 0.000136989
7 *341:B1 *339:A2 7.84111e-05
8 *341:B1 *345:A1_N 4.6025e-06
9 *36:6 *335:B1 0.000139202
10 *337:C *341:B1 4.86936e-05
*RES
1 *338:Y *36:6 10.6571 
2 *36:6 *341:B1 22.9429 
3 *36:6 *339:B1 10.2464 
*END

*D_NET *37 0.00106352
*CONN
*I *340:B1 I *D sky130_fd_sc_hd__a21oi_1
*I *339:Y O *D sky130_fd_sc_hd__a211oi_1
*CAP
1 *340:B1 0.000282427
2 *339:Y 0.000282427
3 *340:B1 *302:B1 0.000170618
4 *340:B1 *337:A 8.08608e-06
5 *340:B1 *113:71 0.00015244
6 *337:B *340:B1 6.9237e-05
7 *337:C *340:B1 7.22344e-05
8 *340:A2 *340:B1 2.60464e-05
*RES
1 *339:Y *340:B1 34.1714 
*END

*D_NET *38 0.000159061
*CONN
*I *345:A2_N I *D sky130_fd_sc_hd__o2bb2ai_1
*I *341:X O *D sky130_fd_sc_hd__a21o_1
*CAP
1 *345:A2_N 5.12329e-05
2 *341:X 5.12329e-05
3 *345:A2_N *345:A1_N 5.65955e-05
*RES
1 *341:X *345:A2_N 19.5464 
*END

*D_NET *39 0.000672982
*CONN
*I *345:B1 I *D sky130_fd_sc_hd__o2bb2ai_1
*I *342:Y O *D sky130_fd_sc_hd__nand3_1
*CAP
1 *345:B1 0.000160232
2 *342:Y 0.000160232
3 *345:B1 *304:A1 5.49995e-05
4 *345:B1 *384:CLK 5.33005e-05
5 *345:B1 *101:12 0.000150054
6 *345:B1 *120:12 0
7 *384:D *345:B1 9.41642e-05
*RES
1 *342:Y *345:B1 31.0286 
*END

*D_NET *40 0.00691123
*CONN
*I *344:C I *D sky130_fd_sc_hd__or3_1
*I *357:B1 I *D sky130_fd_sc_hd__o211ai_2
*I *355:B1 I *D sky130_fd_sc_hd__o2111ai_1
*I *343:Y O *D sky130_fd_sc_hd__inv_2
*CAP
1 *344:C 0.000791077
2 *357:B1 0
3 *355:B1 0.000245056
4 *343:Y 9.31271e-05
5 *40:12 0.000767832
6 *40:8 0.00140698
7 *344:C *278:A1 0
8 *344:C *283:C_N 6.24846e-05
9 *344:C *286:C 0.000310769
10 *344:C *296:A1 3.75868e-05
11 *344:C *300:A1_N 8.67814e-06
12 *344:C *303:A 0.000228259
13 *344:C *401:A 0.000106784
14 *344:C *60:44 4.00032e-05
15 *344:C *101:10 3.75959e-05
16 *344:C *125:14 0.000118846
17 *344:C *125:16 0.000291717
18 *344:C *125:22 0.000246677
19 *344:C *125:34 0.000282627
20 *344:C *126:10 5.5764e-05
21 *355:B1 *350:B1 0.0002419
22 *355:B1 *355:C1 0.000128913
23 *355:B1 *357:A1 6.6314e-05
24 *355:B1 *357:C1 3.22524e-05
25 *355:B1 *360:A2 9.84229e-05
26 *355:B1 *360:B1 5.49544e-05
27 *355:B1 *360:D1 3.23206e-05
28 *355:B1 *361:B1 5.49794e-05
29 *355:B1 *59:115 3.05868e-05
30 *40:8 *397:A 1.35465e-05
31 *40:8 *125:34 1.86931e-05
32 *40:8 *126:19 9.86486e-06
33 *40:12 *283:A 4.08545e-05
34 *40:12 *300:A1_N 0.000269535
35 *40:12 *300:A2_N 0.000140907
36 *40:12 *300:B1 6.3857e-05
37 *40:12 *300:B2 4.10094e-05
38 *40:12 *357:A1 0.000120083
39 *40:12 *357:A2 5.49995e-05
40 *40:12 *357:C1 6.54113e-06
41 *40:12 *361:B1 5.49995e-05
42 *40:12 *397:A 6.05161e-06
43 *342:B *344:C 2.39415e-05
44 *374:D *344:C 0.000173844
*RES
1 *343:Y *40:8 10.675 
2 *40:8 *40:12 10.4107 
3 *40:12 *355:B1 17.2643 
4 *40:12 *357:B1 9.3 
5 *40:8 *344:C 39.4786 
*END

*D_NET *41 0.000392055
*CONN
*I *345:B2 I *D sky130_fd_sc_hd__o2bb2ai_1
*I *344:X O *D sky130_fd_sc_hd__or3_1
*CAP
1 *345:B2 3.67854e-05
2 *344:X 3.67854e-05
3 *345:B2 *113:71 2.48938e-05
4 *345:B2 *113:73 0.000129304
5 *337:C *345:B2 0.000154198
6 *342:B *345:B2 1.00887e-05
*RES
1 *344:X *345:B2 29.5464 
*END

*D_NET *42 0.00544944
*CONN
*I *349:C1 I *D sky130_fd_sc_hd__o2111ai_1
*I *350:A1 I *D sky130_fd_sc_hd__o21ai_1
*I *346:Y O *D sky130_fd_sc_hd__inv_2
*CAP
1 *349:C1 0.00181544
2 *350:A1 6.86756e-05
3 *346:Y 0.000124988
4 *42:8 0.0020091
5 *349:C1 *308:B1 0
6 *349:C1 *356:A2 5.51649e-05
7 *349:C1 *357:A2 7.94302e-05
8 *349:C1 *389:A 5.33786e-05
9 *349:C1 *43:30 0.000101116
10 *349:C1 *82:18 6.16744e-05
11 *349:C1 *82:24 2.5299e-05
12 *349:C1 *129:81 9.25128e-05
13 *349:C1 *135:26 0.000121025
14 *349:C1 *135:52 0.000132027
15 *350:A1 *350:B1 4.96113e-05
16 *350:A1 *352:A 3.50746e-05
17 *42:8 *354:B 7.70035e-05
18 *42:8 *356:A2 0.000339716
19 *42:8 *135:26 0.000208207
*RES
1 *346:Y *42:8 18.175 
2 *42:8 *350:A1 15.175 
3 *42:8 *349:C1 29.7072 
*END

*D_NET *43 0.00688362
*CONN
*I *350:A2 I *D sky130_fd_sc_hd__o21ai_1
*I *356:A2 I *D sky130_fd_sc_hd__o21ai_1
*I *347:Y O *D sky130_fd_sc_hd__a211oi_2
*CAP
1 *350:A2 0.000136431
2 *356:A2 0.00063311
3 *347:Y 0.00109825
4 *43:30 0.000912648
5 *43:28 0.00124135
6 *350:A2 *350:B1 0.000180073
7 *356:A2 *351:A 4.26167e-05
8 *356:A2 *356:A1 2.99878e-05
9 *356:A2 *356:B1 0.000114647
10 *356:A2 *122:10 1.48252e-05
11 *43:28 *315:A 3.59895e-05
12 *43:28 *318:A 2.25232e-05
13 *43:28 *319:A1 1.21258e-05
14 *43:28 *319:A2 3.82309e-05
15 *43:28 *319:B1 0.000308758
16 *43:28 *321:A1 0.000105247
17 *43:28 *321:A3 2.24813e-05
18 *43:28 *322:A2_N 1.65169e-05
19 *43:28 *347:C1 0.000134707
20 *43:28 *369:B 0.000401604
21 *43:28 *391:A 5.33005e-05
22 *43:28 *67:31 0.000252361
23 *43:28 *103:8 0.000138973
24 *43:28 *107:10 0
25 *43:28 *107:16 0.000196446
26 *43:28 *135:26 4.80738e-05
27 *43:30 *59:107 0
28 *43:30 *122:10 2.29112e-05
29 *43:30 *135:26 5.85705e-05
30 *349:C1 *356:A2 5.51649e-05
31 *349:C1 *43:30 0.000101116
32 *378:D *43:28 3.02691e-05
33 *404:A *356:A2 8.45942e-05
34 *404:A *43:28 0
35 *42:8 *356:A2 0.000339716
*RES
1 *347:Y *43:28 46.806 
2 *43:28 *43:30 3.3125 
3 *43:30 *356:A2 25.1036 
4 *43:30 *350:A2 15.5679 
*END

*D_NET *44 0.00292865
*CONN
*I *349:B1 I *D sky130_fd_sc_hd__o2111ai_1
*I *360:C1 I *D sky130_fd_sc_hd__o2111ai_1
*I *348:Y O *D sky130_fd_sc_hd__nor2_1
*CAP
1 *349:B1 0.000190536
2 *360:C1 0.000161914
3 *348:Y 0.000440445
4 *44:18 0.000792896
5 *349:B1 *308:B1 1.08359e-05
6 *349:B1 *389:A 0.000167626
7 *349:B1 *73:49 9.25014e-06
8 *349:B1 *73:63 0.000280397
9 *349:B1 *112:58 6.7376e-05
10 *360:C1 *354:C 0
11 *360:C1 *73:63 0.000211749
12 *44:18 *272:A 1.96733e-05
13 *44:18 *308:A1 7.49251e-05
14 *44:18 *348:A 6.74948e-05
15 *44:18 *348:B 0
16 *44:18 *107:30 0.00012501
17 *44:18 *112:12 8.09128e-05
18 *44:18 *112:58 0.000126603
19 *44:18 *135:35 4.35482e-05
20 *377:D *44:18 5.74562e-05
*RES
1 *348:Y *44:18 27.6214 
2 *44:18 *360:C1 21.1571 
3 *44:18 *349:B1 22.7286 
*END

*D_NET *45 0.00446662
*CONN
*I *350:B1 I *D sky130_fd_sc_hd__o21ai_1
*I *349:Y O *D sky130_fd_sc_hd__o2111ai_1
*CAP
1 *350:B1 0.00128886
2 *349:Y 0.00128886
3 *350:B1 *307:C_N 2.61284e-05
4 *350:B1 *308:B1 0.000264622
5 *350:B1 *348:B 4.43273e-05
6 *350:B1 *352:A 9.98191e-05
7 *350:B1 *360:A2 9.84229e-05
8 *350:B1 *59:107 0.000392217
9 *350:B1 *59:115 6.77948e-06
10 *350:B1 *62:16 9.74665e-05
11 *350:B1 *73:63 0.000187286
12 *350:B1 *122:23 8.84874e-05
13 *350:B1 *135:52 5.5159e-05
14 *350:A1 *350:B1 4.96113e-05
15 *350:A2 *350:B1 0.000180073
16 *355:B1 *350:B1 0.0002419
17 *385:D *350:B1 5.65955e-05
*RES
1 *349:Y *350:B1 49.1893 
*END

*D_NET *46 0.00107668
*CONN
*I *356:A1 I *D sky130_fd_sc_hd__o21ai_1
*I *351:Y O *D sky130_fd_sc_hd__inv_2
*CAP
1 *356:A1 0.000244047
2 *351:Y 0.000244047
3 *356:A1 *346:A 9.83442e-05
4 *356:A1 *356:B1 0.000284104
5 *356:A1 *135:26 9.99853e-05
6 *356:A2 *356:A1 2.99878e-05
7 *386:D *356:A1 5.49544e-05
8 *404:A *356:A1 2.12087e-05
*RES
1 *351:Y *356:A1 24.6357 
*END

*D_NET *47 0.0018416
*CONN
*I *354:B I *D sky130_fd_sc_hd__and4_1
*I *352:X O *D sky130_fd_sc_hd__or2_1
*CAP
1 *354:B 0.000746929
2 *352:X 0.000746929
3 *354:B *306:B 2.85234e-05
4 *354:B *98:6 5.6647e-05
5 *354:B *98:17 9.99853e-05
6 *354:B *123:6 7.07155e-06
7 *354:B *135:26 7.85137e-05
8 *42:8 *354:B 7.70035e-05
*RES
1 *352:X *354:B 36.5643 
*END

*D_NET *48 0.00146447
*CONN
*I *359:A I *D sky130_fd_sc_hd__and2_1
*I *358:B I *D sky130_fd_sc_hd__nor2_1
*I *354:D I *D sky130_fd_sc_hd__and4_1
*I *353:Y O *D sky130_fd_sc_hd__nand2_1
*CAP
1 *359:A 1.52132e-05
2 *358:B 2.22847e-05
3 *354:D 0.000199341
4 *353:Y 0.000126424
5 *48:23 5.50877e-05
6 *48:6 0.000343355
7 *354:D *356:B1 0.000239224
8 *354:D *360:A1 4.65827e-05
9 *359:A *124:18 5.65955e-05
10 *48:6 *356:B1 0.000104611
11 *48:6 *358:A 5.33005e-05
12 *48:6 *124:18 9.41642e-05
13 *48:23 *124:18 5.49544e-05
14 *377:D *48:6 5.33334e-05
*RES
1 *353:Y *48:6 12.7107 
2 *48:6 *354:D 22.7464 
3 *48:6 *48:23 0.535714 
4 *48:23 *358:B 9.72857 
5 *48:23 *359:A 9.83571 
*END

*D_NET *49 0.000485944
*CONN
*I *355:D1 I *D sky130_fd_sc_hd__o2111ai_1
*I *354:X O *D sky130_fd_sc_hd__and4_1
*CAP
1 *355:D1 9.42429e-05
2 *354:X 9.42429e-05
3 *355:D1 *354:C 0.000121254
4 *355:D1 *360:A2 0.000121254
5 *355:D1 *98:17 5.49489e-05
*RES
1 *354:X *355:D1 29.7786 
*END

*D_NET *50 0.00328523
*CONN
*I *356:B1 I *D sky130_fd_sc_hd__o21ai_1
*I *355:Y O *D sky130_fd_sc_hd__o2111ai_1
*CAP
1 *356:B1 0.000935235
2 *355:Y 0.000935235
3 *356:B1 *306:B 0.000174538
4 *356:B1 *346:A 0.000136692
5 *356:B1 *354:C 0.000164197
6 *356:B1 *358:A 8.30809e-05
7 *356:B1 *360:A2 9.21788e-06
8 *354:D *356:B1 0.000239224
9 *356:A1 *356:B1 0.000284104
10 *356:A2 *356:B1 0.000114647
11 *377:D *356:B1 4.45982e-06
12 *404:A *356:B1 9.99853e-05
13 *48:6 *356:B1 0.000104611
*RES
1 *355:Y *356:B1 45.85 
*END

*D_NET *51 0.000783638
*CONN
*I *361:A2_N I *D sky130_fd_sc_hd__o2bb2ai_1
*I *357:Y O *D sky130_fd_sc_hd__o211ai_2
*CAP
1 *361:A2_N 0.000261867
2 *357:Y 0.000261867
3 *361:A2_N *361:B1 0.00020376
4 *361:A2_N *361:B2 0
5 *361:A2_N *98:17 5.61441e-05
6 *361:A2_N *124:14 0
*RES
1 *357:Y *361:A2_N 33.35 
*END

*D_NET *52 0.00135535
*CONN
*I *360:A1 I *D sky130_fd_sc_hd__o2111ai_1
*I *358:Y O *D sky130_fd_sc_hd__nor2_1
*CAP
1 *360:A1 0.000345087
2 *358:Y 0.000345087
3 *360:A1 *360:A2 0.000310456
4 *360:A1 *59:115 2.72055e-05
5 *360:A1 *98:17 9.41642e-05
6 *360:A1 *124:18 0.000186765
7 *354:D *360:A1 4.65827e-05
*RES
1 *358:Y *360:A1 43.5107 
*END

*D_NET *53 0.00111126
*CONN
*I *360:A2 I *D sky130_fd_sc_hd__o2111ai_1
*I *359:X O *D sky130_fd_sc_hd__and2_1
*CAP
1 *360:A2 0.00018301
2 *359:X 0.00018301
3 *360:A2 *354:C 3.34599e-05
4 *360:A2 *124:14 7.40018e-05
5 *350:B1 *360:A2 9.84229e-05
6 *355:B1 *360:A2 9.84229e-05
7 *355:D1 *360:A2 0.000121254
8 *356:B1 *360:A2 9.21788e-06
9 *360:A1 *360:A2 0.000310456
*RES
1 *359:X *360:A2 33.225 
*END

*D_NET *54 0.00156292
*CONN
*I *361:B1 I *D sky130_fd_sc_hd__o2bb2ai_1
*I *360:Y O *D sky130_fd_sc_hd__o2111ai_1
*CAP
1 *361:B1 0.000340114
2 *360:Y 0.000340114
3 *361:B1 *357:C1 5.50052e-05
4 *361:B1 *361:B2 0.000325639
5 *355:B1 *361:B1 5.49794e-05
6 *361:A2_N *361:B1 0.00020376
7 *405:A *361:B1 0.00018831
8 *40:12 *361:B1 5.49995e-05
*RES
1 *360:Y *361:B1 35.9214 
*END

*D_NET *55 0.00134428
*CONN
*I *365:A I *D sky130_fd_sc_hd__nand4_4
*I *362:X O *D sky130_fd_sc_hd__and2b_1
*CAP
1 *365:A 0.000326389
2 *362:X 0.000326389
3 *365:A *275:A 3.69047e-06
4 *365:A *64:26 6.32732e-05
5 *365:A *66:24 0.000109073
6 *365:A *71:31 8.25843e-06
7 *365:A *72:12 0
8 *365:A *100:12 0.00050721
*RES
1 *362:X *365:A 34.9393 
*END

*D_NET *56 0.00521775
*CONN
*I *326:A I *D sky130_fd_sc_hd__or2_1
*I *332:A1 I *D sky130_fd_sc_hd__o211a_1
*I *365:B I *D sky130_fd_sc_hd__nand4_4
*I *274:B I *D sky130_fd_sc_hd__nand3_2