*SPEF "ieee 1481-1999"
*DESIGN "pes_brg"
*DATE "11:11:11 Fri 11 11, 1111"
*VENDOR "OpenRCX"
*PROGRAM "Parallel Extraction"
*VERSION "1.0"
*DESIGN_FLOW "NAME_SCOPE LOCAL" "PIN_CAP NONE"
*DIVIDER /
*DELIMITER :
*BUS_DELIMITER []
*T_UNIT 1 NS
*C_UNIT 1 PF
*R_UNIT 1 OHM
*L_UNIT 1 HENRY

*NAME_MAP
*3 clk
*4 clkout
*5 reset
*6 sel[0]
*7 sel[1]
*8 _000_
*9 _001_
*10 _002_
*11 _003_
*12 _004_
*13 _005_
*14 _006_
*15 _007_
*16 _008_
*17 _009_
*18 _010_
*19 _011_
*20 _012_
*21 _013_
*22 _014_
*23 _015_
*24 _016_
*25 _017_
*26 _018_
*27 _019_
*28 _020_
*29 _021_
*30 _022_
*31 _023_
*32 _024_
*33 _025_
*34 _026_
*35 _027_
*36 _028_
*37 _029_
*38 _030_
*39 _031_
*40 _032_
*41 _033_
*42 _034_
*43 _035_
*44 _036_
*45 _037_
*46 _038_
*47 _039_
*48 _040_
*49 _041_
*50 _042_
*51 _043_
*52 _044_
*53 _045_
*54 _046_
*55 _047_
*56 _048_
*57 _049_
*58 _050_
*59 _051_
*60 _052_
*61 _053_
*62 _054_
*63 _055_
*64 _056_
*65 _057_
*66 _058_
*67 _059_
*68 _060_
*69 _061_
*70 _062_
*71 _063_
*72 _064_
*73 _065_
*74 _066_
*75 _067_
*76 _068_
*77 _069_
*78 _070_
*79 _071_
*80 _072_
*81 _073_
*82 _074_
*83 _075_
*84 _076_
*85 _077_
*86 _078_
*87 _079_
*88 _080_
*89 _081_
*90 _082_
*91 _083_
*92 _084_
*93 _085_
*94 _086_
*95 _087_
*96 _088_
*97 _089_
*98 _090_
*99 _091_
*100 _092_
*101 _093_
*102 _094_
*103 _095_
*104 _096_
*105 _097_
*106 _098_
*107 _099_
*108 _100_
*109 _101_
*110 _102_
*111 clknet_0_clk
*112 clknet_1_0__leaf_clk
*113 clknet_1_1__leaf_clk
*114 cnt1\[0\]
*115 cnt1\[1\]
*116 cnt1\[2\]
*117 cnt1\[3\]
*118 cnt1\[4\]
*119 cnt1\[5\]
*120 cnt2\[0\]
*121 cnt2\[1\]
*122 cnt3\[0\]
*123 cnt3\[1\]
*124 cnt3\[2\]
*125 cnt4\[0\]
*126 cnt4\[1\]
*127 cnt4\[2\]
*128 cnt4\[3\]
*129 net1
*130 net13
*131 net14
*132 net15
*133 net16
*134 net17
*135 net2
*136 net20
*137 net21
*138 net22
*139 net23
*140 net24
*141 net3
*142 net4
*143 net5
*144 net6
*145 net7
*146 net9
*147 FILLER_0_0_19
*148 FILLER_0_0_27
*149 FILLER_0_0_3
*150 FILLER_0_0_37
*151 FILLER_0_0_57
*152 FILLER_0_0_76
*153 FILLER_0_0_85
*154 FILLER_0_10_18
*155 FILLER_0_10_3
*156 FILLER_0_10_32
*157 FILLER_0_10_38
*158 FILLER_0_10_47
*159 FILLER_0_10_79
*160 FILLER_0_10_83
*161 FILLER_0_10_85
*162 FILLER_0_11_27
*163 FILLER_0_12_27
*164 FILLER_0_12_42
*165 FILLER_0_12_55
*166 FILLER_0_12_72
*167 FILLER_0_12_83
*168 FILLER_0_12_85
*169 FILLER_0_13_84
*170 FILLER_0_14_11
*171 FILLER_0_14_19
*172 FILLER_0_14_27
*173 FILLER_0_14_3
*174 FILLER_0_14_40
*175 FILLER_0_14_48
*176 FILLER_0_14_63
*177 FILLER_0_14_78
*178 FILLER_0_14_85
*179 FILLER_0_1_3
*180 FILLER_0_1_37
*181 FILLER_0_1_54
*182 FILLER_0_1_82
*183 FILLER_0_2_26
*184 FILLER_0_2_29
*185 FILLER_0_2_54
*186 FILLER_0_2_63
*187 FILLER_0_2_7
*188 FILLER_0_2_81
*189 FILLER_0_2_85
*190 FILLER_0_3_27
*191 FILLER_0_3_48
*192 FILLER_0_3_57
*193 FILLER_0_3_72
*194 FILLER_0_3_81
*195 FILLER_0_3_85
*196 FILLER_0_4_29
*197 FILLER_0_4_3
*198 FILLER_0_4_61
*199 FILLER_0_4_82
*200 FILLER_0_4_85
*201 FILLER_0_5_32
*202 FILLER_0_5_71
*203 FILLER_0_5_84
*204 FILLER_0_6_29
*205 FILLER_0_6_55
*206 FILLER_0_6_83
*207 FILLER_0_6_85
*208 FILLER_0_7_17
*209 FILLER_0_7_64
*210 FILLER_0_8_39
*211 FILLER_0_8_85
*212 FILLER_0_9_44
*213 FILLER_0_9_85
*214 PHY_EDGE_ROW_0_Left_15
*215 PHY_EDGE_ROW_0_Right_0
*216 PHY_EDGE_ROW_10_Left_25
*217 PHY_EDGE_ROW_10_Right_10
*218 PHY_EDGE_ROW_11_Left_26
*219 PHY_EDGE_ROW_11_Right_11
*220 PHY_EDGE_ROW_12_Left_27
*221 PHY_EDGE_ROW_12_Right_12
*222 PHY_EDGE_ROW_13_Left_28
*223 PHY_EDGE_ROW_13_Right_13
*224 PHY_EDGE_ROW_14_Left_29
*225 PHY_EDGE_ROW_14_Right_14
*226 PHY_EDGE_ROW_1_Left_16
*227 PHY_EDGE_ROW_1_Right_1
*228 PHY_EDGE_ROW_2_Left_17
*229 PHY_EDGE_ROW_2_Right_2
*230 PHY_EDGE_ROW_3_Left_18
*231 PHY_EDGE_ROW_3_Right_3
*232 PHY_EDGE_ROW_4_Left_19
*233 PHY_EDGE_ROW_4_Right_4
*234 PHY_EDGE_ROW_5_Left_20
*235 PHY_EDGE_ROW_5_Right_5
*236 PHY_EDGE_ROW_6_Left_21
*237 PHY_EDGE_ROW_6_Right_6
*238 PHY_EDGE_ROW_7_Left_22
*239 PHY_EDGE_ROW_7_Right_7
*240 PHY_EDGE_ROW_8_Left_23
*241 PHY_EDGE_ROW_8_Right_8
*242 PHY_EDGE_ROW_9_Left_24
*243 PHY_EDGE_ROW_9_Right_9
*244 TAP_TAPCELL_ROW_0_30
*245 TAP_TAPCELL_ROW_0_31
*246 TAP_TAPCELL_ROW_0_32
*247 TAP_TAPCELL_ROW_10_46
*248 TAP_TAPCELL_ROW_10_47
*249 TAP_TAPCELL_ROW_11_48
*250 TAP_TAPCELL_ROW_12_49
*251 TAP_TAPCELL_ROW_12_50
*252 TAP_TAPCELL_ROW_13_51
*253 TAP_TAPCELL_ROW_14_52
*254 TAP_TAPCELL_ROW_14_53
*255 TAP_TAPCELL_ROW_14_54
*256 TAP_TAPCELL_ROW_1_33
*257 TAP_TAPCELL_ROW_2_34
*258 TAP_TAPCELL_ROW_2_35
*259 TAP_TAPCELL_ROW_3_36
*260 TAP_TAPCELL_ROW_4_37
*261 TAP_TAPCELL_ROW_4_38
*262 TAP_TAPCELL_ROW_5_39
*263 TAP_TAPCELL_ROW_6_40
*264 TAP_TAPCELL_ROW_6_41
*265 TAP_TAPCELL_ROW_7_42
*266 TAP_TAPCELL_ROW_8_43
*267 TAP_TAPCELL_ROW_8_44
*268 TAP_TAPCELL_ROW_9_45
*269 _103_
*270 _104_
*271 _105_
*272 _106_
*273 _107_
*274 _108_
*275 _109_
*276 _110_
*277 _111_
*278 _112_
*279 _113_
*280 _114_
*281 _115_
*282 _116_
*283 _117_
*284 _118_
*285 _119_
*286 _120_
*287 _121_
*288 _122_
*289 _123_
*290 _124_
*291 _125_
*292 _126_
*293 _127_
*294 _128_
*295 _129_
*296 _130_
*297 _131_
*298 _132_
*299 _133_
*300 _134_
*301 _135_
*302 _136_
*303 _137_
*304 _138_
*305 _139_
*306 _140_
*307 _141_
*308 _142_
*309 _143_
*310 _144_
*311 _145_
*312 _146_
*313 _147_
*314 _148_
*315 _149_
*316 _150_
*317 _151_
*318 _152_
*319 _153_
*320 _154_
*321 _155_
*322 _156_
*323 _157_
*324 _158_
*325 _159_
*326 _160_
*327 _161_
*328 _162_
*329 _163_
*330 _164_
*331 _165_
*332 _166_
*333 _167_
*334 _168_
*335 _169_
*336 _170_
*337 _171_
*338 _172_
*339 _173_
*340 _174_
*341 _175_
*342 _176_
*343 _177_
*344 _178_
*345 _179_
*346 _180_
*347 _181_
*348 _182_
*349 _183_
*350 _184_
*351 _185_
*352 _186_
*353 _187_
*354 _188_
*355 _189_
*356 _190_
*357 _191_
*358 _192_
*359 _193_
*360 _194_
*361 _195_
*362 _196_
*363 _197_
*364 _198_
*365 _199_
*366 _200_
*367 _201_
*368 _202_
*369 _203_
*370 _204_
*371 _205_
*372 _206_
*373 _207_
*374 _208_
*375 _209_
*376 _210_
*377 _211_
*378 _212_
*379 _213_
*380 _214_
*381 _215_
*382 _216_
*383 _217_
*384 _218_
*385 _219_
*386 _220_
*387 _221_
*388 clkbuf_0_clk
*389 clkbuf_1_0__f_clk
*390 clkbuf_1_1__f_clk
*391 clone2
*392 hold10
*393 hold11
*394 hold12
*395 hold13
*396 hold16
*397 hold17
*398 hold18
*399 hold19
*400 hold2
*401 hold20
*402 hold9
*403 input1
*404 input2
*405 input3
*406 output4
*407 rebuffer1
*408 rebuffer3

*PORTS
clk I
clkout O
reset I
sel[0] I
sel[1] I

*D_NET *3 0.00734434
*CONN
*P clk I
*I *388:A I *D sky130_fd_sc_hd__clkbuf_16
*CAP
1 clk 0.00254503
2 *388:A 0
3 *3:11 0.00254503
4 *3:11 *365:C 0.00021341
5 *3:11 *18:8 0.000359259
6 *3:11 *24:35 0.000102351
7 *3:11 *30:10 0.000152304
8 *3:11 *56:14 5.11197e-05
9 *3:11 *58:118 2.05952e-05
10 *3:11 *65:22 5.48744e-05
11 *3:11 *72:10 0.000156616
12 *3:11 *107:98 0.000367489
13 *3:11 *113:14 0.000108435
14 *3:11 *119:10 0.000358351
15 *3:11 *119:12 0.000179179
16 *3:11 *145:25 0.000130301
*RES
1 clk *3:11 43.4633 
2 *3:11 *388:A 23 
*END

*D_NET *4 0.00138993
*CONN
*P clkout O
*I *406:X O *D sky130_fd_sc_hd__clkbuf_4
*CAP
1 clkout 0.00040842
2 *406:X 0.000228297
3 *4:8 0.000636717
4 *4:8 *93:21 0.0001165
*RES
1 *406:X *4:8 41.48 
2 *4:8 clkout 8.7 
*END

*D_NET *5 0.00243592
*CONN
*P reset I
*I *403:A I *D sky130_fd_sc_hd__buf_2
*CAP
1 reset 0.000733803
2 *403:A 0
3 *5:13 0.000733803
4 *5:13 *318:B 2.38465e-05
5 *5:13 *378:CLK 0.000184441
6 *5:13 *386:CLK 0.000251555
7 *5:13 *6:17 3.69998e-05
8 *5:13 *107:10 4.19533e-05
9 *5:13 *112:27 0.000429523
*RES
1 reset *5:13 38.3481 
2 *5:13 *403:A 23 
*END

*D_NET *6 0.00311865
*CONN
*P sel[0] I
*I *404:A I *D sky130_fd_sc_hd__clkbuf_2
*CAP
1 sel[0] 0.00117952
2 *404:A 0
3 *6:17 0.00117952
4 *6:17 *356:B1 0.000102389
5 *6:17 *21:10 0.000163426
6 *6:17 *22:10 0.000168901
7 *6:17 *43:30 0
8 *6:17 *43:42 8.73253e-05
9 *6:17 *46:12 2.18286e-05
10 *6:17 *107:10 8.49266e-05
11 *6:17 *112:27 0
12 *6:17 *129:8 9.3813e-05
13 *6:17 *135:20 0
14 *6:17 *135:26 0
15 *5:13 *6:17 3.69998e-05
*RES
1 sel[0] *6:17 40.8004 
2 *6:17 *404:A 23 
*END

*D_NET *7 0.00151213
*CONN
*P sel[1] I
*I *405:A I *D sky130_fd_sc_hd__buf_1
*CAP
1 sel[1] 0.000633833
2 *405:A 0
3 *7:11 0.000633833
4 *7:11 *361:A1_N 5.67058e-05
5 *7:11 *361:B1 0.000187754
*RES
1 sel[1] *7:11 28.2779 
2 *7:11 *405:A 23 
*END

*D_NET *8 0.00133808
*CONN
*I *372:D I *D sky130_fd_sc_hd__dfxtp_2
*I *279:X O *D sky130_fd_sc_hd__o21a_1
*CAP
1 *372:D 0.000106635
2 *279:X 0.000321198
3 *8:10 0.000427833
4 *372:D *292:C 9.33976e-05
5 *372:D *372:CLK 3.89917e-05
6 *8:10 *279:A2 0.000137651
7 *8:10 *279:B1 2.86796e-05
8 *8:10 *315:A 1.33694e-05
9 *8:10 *372:CLK 8.62783e-05
10 *8:10 *121:32 8.4047e-05
*RES
1 *279:X *8:10 42.6814 
2 *8:10 *372:D 40.0559 
*END

*D_NET *9 0.00154835
*CONN
*I *373:D I *D sky130_fd_sc_hd__dfxtp_2
*I *288:Y O *D sky130_fd_sc_hd__o2bb2ai_1
*CAP
1 *373:D 0.000260359
2 *288:Y 0.000154444
3 *9:8 0.000414803
4 *373:D *112:58 5.56356e-05
5 *373:D *112:65 0.000188927
6 *9:8 *361:B2 9.53795e-05
7 *9:8 *82:24 8.57577e-05
8 *9:8 *112:58 0.000293046
*RES
1 *288:Y *9:8 42.0186 
2 *9:8 *373:D 42.7695 
*END

*D_NET *10 0.000968749
*CONN
*I *374:D I *D sky130_fd_sc_hd__dfxtp_1
*I *296:Y O *D sky130_fd_sc_hd__o21ai_1
*CAP
1 *374:D 8.77079e-06
2 *296:Y 0.000226289
3 *10:10 0.000235059
4 *374:D *279:A2 1.74843e-05
5 *10:10 *296:A1 7.17698e-05
6 *10:10 *40:46 0.000194043
7 *10:10 *101:10 1.90678e-05
8 *10:10 *121:32 0.000196265
*RES
1 *296:Y *10:10 43.1371 
2 *10:10 *374:D 38.1916 
*END

*D_NET *11 0.00174399
*CONN
*I *375:D I *D sky130_fd_sc_hd__dfxtp_1
*I *300:Y O *D sky130_fd_sc_hd__o2bb2ai_1
*CAP
1 *375:D 0.000103137
2 *300:Y 0.000592537
3 *11:14 0.000695674
4 *11:14 *300:B1 0.000316338
5 *11:14 *128:8 0
6 *11:14 *136:10 3.40618e-05
7 *11:14 *141:12 2.24366e-06
*RES
1 *300:Y *11:14 48.73 
2 *11:14 *375:D 39.6209 
*END

*D_NET *12 0.000937042
*CONN
*I *376:D I *D sky130_fd_sc_hd__dfxtp_1
*I *311:Y O *D sky130_fd_sc_hd__a32oi_1
*CAP
1 *376:D 0.00010986
2 *311:Y 0.00011828
3 *12:12 0.00022814
4 *376:D *113:12 0.000183723
5 *12:12 *311:B1 6.38427e-05
6 *12:12 *94:10 0.000168515
7 *12:12 *113:8 2.35536e-05
8 *12:12 *146:12 4.11274e-05
*RES
1 *311:Y *12:12 41.3764 
2 *12:12 *376:D 40.0973 
*END

*D_NET *13 0.00383337
*CONN
*I *377:D I *D sky130_fd_sc_hd__dfxtp_2
*I *314:X O *D sky130_fd_sc_hd__clkbuf_1
*CAP
1 *377:D 0
2 *314:X 7.87444e-05
3 *13:20 0.00114892
4 *13:8 0.00122767
5 *13:8 *48:6 5.41288e-05
6 *13:20 *306:B 8.17156e-05
7 *13:20 *316:A 5.3304e-05
8 *13:20 *316:B 0.000114743
9 *13:20 *355:A1 3.48278e-05
10 *13:20 *44:12 5.97612e-05
11 *13:20 *50:12 4.26047e-06
12 *13:20 *63:71 1.35999e-05
13 *13:20 *67:21 1.9054e-05
14 *13:20 *104:28 0.000438506
15 *13:20 *106:10 0.000137533
16 *13:20 *107:28 5.71002e-06
17 *13:20 *107:30 3.69412e-05
18 *13:20 *114:6 2.16575e-05
19 *13:20 *114:20 0.00016604
20 *13:20 *115:14 3.50862e-06
21 *13:20 *141:36 0.000132736
*RES
1 *314:X *13:8 39.0979 
2 *13:8 *13:20 39.3859 
3 *13:20 *377:D 23 
*END

*D_NET *14 0.00136932
*CONN
*I *378:D I *D sky130_fd_sc_hd__dfxtp_1
*I *319:X O *D sky130_fd_sc_hd__a41o_1
*CAP
1 *378:D 0.000266107
2 *319:X 0.000195123
3 *14:10 0.000461231
4 *378:D *59:90 9.79925e-05
5 *378:D *129:40 5.56356e-05
6 *14:10 *319:A1 0.000100069
7 *14:10 *43:30 2.87443e-05
8 *14:10 *59:90 1.51481e-05
9 *14:10 *104:10 4.91958e-05
10 *14:10 *108:8 0.000100069
*RES
1 *319:X *14:10 42.06 
2 *14:10 *378:D 42.9559 
*END

*D_NET *15 0.000622495
*CONN
*I *379:D I *D sky130_fd_sc_hd__dfxtp_2
*I *322:X O *D sky130_fd_sc_hd__a2bb2o_1
*CAP
1 *379:D 1.26909e-05
2 *322:X 9.79847e-05
3 *15:10 0.000110676
4 *379:D *25:16 8.15899e-06
5 *15:10 *322:A1_N 5.5792e-05
6 *15:10 *116:29 0.000166387
7 *15:10 *143:10 0.000170807
*RES
1 *322:X *15:10 40.8793 
2 *15:10 *379:D 38.1916 
*END

*D_NET *16 0.000608098
*CONN
*I *380:D I *D sky130_fd_sc_hd__dfxtp_1
*I *325:X O *D sky130_fd_sc_hd__a32o_1
*CAP
1 *380:D 8.13196e-05
2 *325:X 9.51687e-05
3 *16:10 0.000176488
4 *16:10 *325:A2 0.000111763
5 *16:10 *325:A3 2.93845e-05
6 *16:10 *379:CLK 0.000113973
*RES
1 *325:X *16:10 40.175 
2 *16:10 *380:D 38.9373 
*END

*D_NET *17 0.001058
*CONN
*I *381:D I *D sky130_fd_sc_hd__dfxtp_1
*I *328:X O *D sky130_fd_sc_hd__a32o_1
*CAP
1 *381:D 9.84366e-05
2 *328:X 0.000102678
3 *17:8 0.000201114
4 *381:D *323:C 0.000125234
5 *381:D *113:18 0.000367692
6 *17:8 *364:A 7.78077e-05
7 *17:8 *57:8 0
8 *17:8 *117:58 8.50366e-05
*RES
1 *328:X *17:8 40.2579 
2 *17:8 *381:D 42.003 
*END

*D_NET *18 0.00160544
*CONN
*I *382:D I *D sky130_fd_sc_hd__dfxtp_1
*I *333:X O *D sky130_fd_sc_hd__o22a_1
*CAP
1 *382:D 0.000161284
2 *333:X 0.000208077
3 *18:8 0.000369361
4 *382:D *113:14 0.000371697
5 *18:8 *58:118 0.000135768
6 *18:8 *133:10 0
7 *3:11 *18:8 0.000359259
*RES
1 *333:X *18:8 43.075 
2 *18:8 *382:D 42.003 
*END

*D_NET *19 0.000546977
*CONN
*I *383:D I *D sky130_fd_sc_hd__dfxtp_1
*I *340:Y O *D sky130_fd_sc_hd__a21oi_1
*CAP
1 *383:D 1.3337e-05
2 *340:Y 0.000151055
3 *19:8 0.000164392
4 *19:8 *337:A 0.000167676
5 *19:8 *32:10 5.0518e-05
*RES
1 *340:Y *19:8 40.9621 
2 *19:8 *383:D 38.1916 
*END

*D_NET *20 0.000698309
*CONN
*I *384:D I *D sky130_fd_sc_hd__dfxtp_1
*I *345:Y O *D sky130_fd_sc_hd__o2bb2ai_1
*CAP
1 *384:D 0.000188578
2 *345:Y 0.000188578
3 *384:D *345:A1_N 3.85196e-05
4 *384:D *345:B1 9.41704e-05
5 *384:D *384:CLK 2.02872e-05
6 *384:D *121:6 7.22999e-05
7 *384:D *121:12 9.5877e-05
*RES
1 *345:Y *384:D 49.8166 
*END

*D_NET *21 0.000865344
*CONN
*I *385:D I *D sky130_fd_sc_hd__dfxtp_1
*I *350:Y O *D sky130_fd_sc_hd__o21ai_1
*CAP
1 *385:D 1.38132e-05
2 *350:Y 0.000221822
3 *21:10 0.000235635
4 *385:D *112:12 4.9054e-06
5 *21:10 *45:26 5.79559e-05
6 *21:10 *129:8 0.000167786
7 *6:17 *21:10 0.000163426
*RES
1 *350:Y *21:10 42.3086 
2 *21:10 *385:D 38.1916 
*END

*D_NET *22 0.000535372
*CONN
*I *386:D I *D sky130_fd_sc_hd__dfxtp_1
*I *356:Y O *D sky130_fd_sc_hd__o21ai_1
*CAP
1 *386:D 1.58638e-05
2 *356:Y 0.000139554
3 *22:10 0.000155418
4 *22:10 *46:12 5.56356e-05
5 *6:17 *22:10 0.000168901
*RES
1 *356:Y *22:10 40.8793 
2 *22:10 *386:D 38.1916 
*END

*D_NET *23 0.000372152
*CONN
*I *387:D I *D sky130_fd_sc_hd__dfxtp_1
*I *361:Y O *D sky130_fd_sc_hd__o2bb2ai_1
*CAP
1 *387:D 1.58638e-05
2 *361:Y 8.24372e-05
3 *23:8 9.83009e-05
4 *23:8 *361:B2 0.000171132
5 *23:8 *112:58 4.41821e-06
6 *23:8 *112:79 0
*RES
1 *361:Y *23:8 40.2579 
2 *23:8 *387:D 38.1916 
*END

*D_NET *24 0.00423716
*CONN
*I *332:A2 I *D sky130_fd_sc_hd__o211a_1
*I *326:B I *D sky130_fd_sc_hd__or2_1
*I *325:A2 I *D sky130_fd_sc_hd__a32o_1
*I *323:Y O *D sky130_fd_sc_hd__nand4_1
*CAP
1 *332:A2 0
2 *326:B 0.000105304
3 *325:A2 0.000123555
4 *323:Y 0.000110157
5 *24:35 0.00130973
6 *24:10 0.00143814
7 *325:A2 *325:A3 1.32314e-05
8 *325:A2 *379:CLK 6.99132e-06
9 *325:A2 *67:71 9.88574e-06
10 *325:A2 *116:42 0.000124439
11 *326:B *326:A 0
12 *326:B *332:C1 3.13209e-06
13 *326:B *56:20 0.0002142
14 *326:B *80:54 2.02872e-05
15 *326:B *80:56 6.9908e-05
16 *24:10 *323:C 2.95423e-05
17 *24:10 *379:CLK 6.99132e-06
18 *24:10 *113:26 8.30753e-05
19 *24:10 *116:42 0.000179346
20 *24:35 *56:32 4.35681e-06
21 *24:35 *58:118 2.42807e-05
22 *24:35 *80:79 0.000146488
23 *3:11 *24:35 0.000102351
24 *16:10 *325:A2 0.000111763
*RES
1 *323:Y *24:10 41.0554 
2 *24:10 *325:A2 40.8482 
3 *24:10 *24:35 34.7075 
4 *24:35 *326:B 25.5479 
5 *24:35 *332:A2 23 
*END

*D_NET *25 0.00274942
*CONN
*I *325:A3 I *D sky130_fd_sc_hd__a32o_1
*I *324:X O *D sky130_fd_sc_hd__a31o_1
*CAP
1 *325:A3 0.000281391
2 *324:X 0.000611599
3 *25:16 0.00089299
4 *325:A3 *379:CLK 0.000381944
5 *325:A3 *67:71 1.94812e-05
6 *25:16 *57:20 0.000219668
7 *25:16 *116:12 0.000189184
8 *25:16 *116:75 0.000102389
9 *325:A2 *325:A3 1.32314e-05
10 *379:D *25:16 8.15899e-06
11 *16:10 *325:A3 2.93845e-05
*RES
1 *324:X *25:16 48.3571 
2 *25:16 *325:A3 44.6493 
*END

*D_NET *26 0.00190329
*CONN
*I *328:A2 I *D sky130_fd_sc_hd__a32o_1
*I *326:X O *D sky130_fd_sc_hd__or2_1
*CAP
1 *328:A2 0
2 *326:X 0.000487347
3 *26:10 0.000487347
4 *26:10 *328:A1 0.000186041
5 *26:10 *328:B2 8.06804e-06
6 *26:10 *27:10 1.05441e-05
7 *26:10 *80:54 0.000226234
8 *26:10 *80:56 0.000408192
9 *26:10 *117:58 2.65751e-05
10 *26:10 *118:8 6.29414e-05
*RES
1 *326:X *26:10 48.0464 
2 *26:10 *328:A2 38 
*END

*D_NET *27 0.000668915
*CONN
*I *328:A3 I *D sky130_fd_sc_hd__a32o_1
*I *327:X O *D sky130_fd_sc_hd__a41o_1
*CAP
1 *328:A3 0
2 *327:X 0.000160703
3 *27:10 0.000160703
4 *27:10 *325:B2 9.65021e-05
5 *27:10 *328:B2 8.50457e-05
6 *27:10 *117:14 7.68979e-05
7 *27:10 *117:58 5.95262e-05
8 *27:10 *118:8 1.89927e-05
9 *26:10 *27:10 1.05441e-05
*RES
1 *327:X *27:10 41.0036 
2 *27:10 *328:A3 38 
*END

*D_NET *28 0.00183859
*CONN
*I *330:C I *D sky130_fd_sc_hd__and4_1
*I *329:X O *D sky130_fd_sc_hd__and3_1
*CAP
1 *330:C 7.42888e-05
2 *329:X 0.000432009
3 *28:10 0.000506298
4 *330:C *70:14 0.000145742
5 *330:C *117:20 5.3304e-05
6 *330:C *117:29 0.000122599
7 *28:10 *274:A 2.75733e-06
8 *28:10 *327:A1 5.43589e-05
9 *28:10 *56:48 5.3304e-05
10 *28:10 *68:28 0.000188927
11 *28:10 *70:14 0.000187084
12 *28:10 *119:62 1.79207e-05
*RES
1 *329:X *28:10 44.235 
2 *28:10 *330:C 40.0507 
*END

*D_NET *29 0.000538825
*CONN
*I *333:A2 I *D sky130_fd_sc_hd__o22a_1
*I *330:X O *D sky130_fd_sc_hd__and4_1
*CAP
1 *333:A2 0
2 *330:X 0.000168817
3 *29:10 0.000168817
4 *29:10 *407:A 1.46286e-05
5 *29:10 *56:32 8.60837e-05
6 *29:10 *143:8 0.000100477
*RES
1 *330:X *29:10 40.7757 
2 *29:10 *333:A2 38 
*END

*D_NET *30 0.00165687
*CONN
*I *333:B1 I *D sky130_fd_sc_hd__o22a_1
*I *331:X O *D sky130_fd_sc_hd__a21bo_1
*CAP
1 *333:B1 5.89877e-05
2 *331:X 0.000523787
3 *30:10 0.000582775
4 *333:B1 *119:42 9.64943e-05
5 *30:10 *331:B1_N 5.40337e-05
6 *30:10 *56:32 0
7 *30:10 *58:118 5.86204e-05
8 *30:10 *107:98 9.78044e-05
9 *30:10 *107:113 3.20631e-05
10 *3:11 *30:10 0.000152304
*RES
1 *331:X *30:10 45.6436 
2 *30:10 *333:B1 39.0979 
*END

*D_NET *31 0.000556147
*CONN
*I *333:B2 I *D sky130_fd_sc_hd__o22a_1
*I *332:X O *D sky130_fd_sc_hd__o211a_1
*CAP
1 *333:B2 0.000125794
2 *332:X 4.1855e-05
3 *31:8 0.000167649
4 *333:B2 *327:A2 0
5 *333:B2 *119:42 7.65525e-05
6 *333:B2 *119:52 1.24376e-05
7 *31:8 *56:32 8.85189e-05
8 *31:8 *80:79 4.334e-05
*RES
1 *332:X *31:8 39.2014 
2 *31:8 *333:B2 40.5686 
*END

*D_NET *32 0.00204188
*CONN
*I *340:A1 I *D sky130_fd_sc_hd__a21oi_1
*I *339:C1 I *D sky130_fd_sc_hd__a211oi_1
*I *335:A1 I *D sky130_fd_sc_hd__a21oi_1
*I *334:Y O *D sky130_fd_sc_hd__inv_2
*CAP
1 *340:A1 0
2 *339:C1 0.000164031
3 *335:A1 0.000178451
4 *334:Y 0.000118623
5 *32:10 0.000498313
6 *32:6 0.000274454
7 *335:A1 *337:A 6.01054e-06
8 *335:A1 *120:12 3.69845e-05
9 *335:A1 *121:50 2.2119e-05
10 *335:A1 *132:14 0.000137651
11 *339:C1 *335:B1 5.14826e-05
12 *339:C1 *393:A 9.79925e-05
13 *339:C1 *33:10 2.95526e-05
14 *339:C1 *132:14 5.40507e-05
15 *32:6 *334:A 5.56356e-05
16 *32:6 *340:A2 2.95526e-05
17 *32:10 *334:A 0.000103019
18 *32:10 *337:A 6.66726e-05
19 *32:10 *120:12 6.67651e-05
20 *19:8 *32:10 5.0518e-05
*RES
1 *334:Y *32:6 24.5743 
2 *32:6 *32:10 19.7229 
3 *32:10 *335:A1 40.7757 
4 *32:10 *339:C1 41.48 
5 *32:6 *340:A1 23 
*END

*D_NET *33 0.000936858
*CONN
*I *337:B I *D sky130_fd_sc_hd__nand3_1
*I *335:Y O *D sky130_fd_sc_hd__a21oi_1
*CAP
1 *337:B 0
2 *335:Y 0.000169435
3 *33:10 0.000169435
4 *33:10 *337:A 0.000328103
5 *33:10 *37:8 7.16552e-05
6 *33:10 *113:71 0.000168678
7 *339:C1 *33:10 2.95526e-05
*RES
1 *335:Y *33:10 42.9921 
2 *33:10 *337:B 38 
*END

*D_NET *34 0.00305926
*CONN
*I *337:C I *D sky130_fd_sc_hd__nand3_1
*I *342:B I *D sky130_fd_sc_hd__nand3_1
*I *336:X O *D sky130_fd_sc_hd__o21a_1
*CAP
1 *337:C 0.000652496
2 *342:B 0.000240838
3 *336:X 0
4 *34:6 0.000893333
5 *337:C *340:B1 6.17437e-06
6 *337:C *36:16 4.98771e-05
7 *337:C *37:8 6.86685e-05
8 *337:C *41:8 0.000171599
9 *337:C *58:152 2.72445e-06
10 *337:C *71:52 0
11 *337:C *93:21 0.000215052
12 *337:C *113:71 9.53018e-05
13 *337:C *132:14 8.50366e-05
14 *342:B *304:A1 0.000344615
15 *342:B *342:C 1.9054e-05
16 *342:B *344:A 0.000121518
17 *342:B *344:C 2.40405e-05
18 *342:B *41:8 1.13812e-05
19 *342:B *63:133 1.12863e-05
20 *342:B *63:148 1.08978e-05
21 *342:B *113:73 3.53698e-05
*RES
1 *336:X *34:6 38 
2 *34:6 *342:B 43.6757 
3 *34:6 *337:C 49.8693 
*END

*D_NET *35 0.000413648
*CONN
*I *340:A2 I *D sky130_fd_sc_hd__a21oi_1
*I *337:Y O *D sky130_fd_sc_hd__nand3_1
*CAP
1 *340:A2 0.000178453
2 *337:Y 0.000178453
3 *340:A2 *340:B1 2.71891e-05
4 *32:6 *340:A2 2.95526e-05
*RES
1 *337:Y *340:A2 49.045 
*END

*D_NET *36 0.00153248
*CONN
*I *339:B1 I *D sky130_fd_sc_hd__a211oi_1
*I *341:B1 I *D sky130_fd_sc_hd__a21o_1
*I *338:Y O *D sky130_fd_sc_hd__o21ai_1
*CAP
1 *339:B1 7.54834e-05
2 *341:B1 0
3 *338:Y 0.000109994
4 *36:16 0.000321026
5 *36:6 0.000506504
6 *339:B1 *335:B1 8.53029e-05
7 *36:6 *335:B1 0.000140927
8 *36:16 *58:152 8.68742e-05
9 *36:16 *71:52 0.000151719
10 *36:16 *132:14 4.77164e-06
11 *337:C *36:16 4.98771e-05
*RES
1 *338:Y *36:6 24.5743 
2 *36:6 *36:16 35.3857 
3 *36:16 *341:B1 23 
4 *36:6 *339:B1 24.0979 
*END

*D_NET *37 0.00121623
*CONN
*I *340:B1 I *D sky130_fd_sc_hd__a21oi_1
*I *339:Y O *D sky130_fd_sc_hd__a211oi_1
*CAP
1 *340:B1 0.000151733
2 *339:Y 0.000185429
3 *37:8 0.000337162
4 *37:8 *337:A 7.6774e-06
5 *37:8 *93:21 0.00018974
6 *37:8 *113:71 0.000170807
7 *337:C *340:B1 6.17437e-06
8 *337:C *37:8 6.86685e-05
9 *340:A2 *340:B1 2.71891e-05
10 *33:10 *37:8 7.16552e-05
*RES
1 *339:Y *37:8 43.075 
2 *37:8 *340:B1 40.5479 
*END

*D_NET *38 0.000166103
*CONN
*I *345:A2_N I *D sky130_fd_sc_hd__o2bb2ai_1
*I *341:X O *D sky130_fd_sc_hd__a21o_1
*CAP
1 *345:A2_N 5.40736e-05
2 *341:X 5.40736e-05
3 *345:A2_N *345:A1_N 5.79559e-05
*RES
1 *341:X *345:A2_N 47.0979 
*END

*D_NET *39 0.00075125
*CONN
*I *345:B1 I *D sky130_fd_sc_hd__o2bb2ai_1
*I *342:Y O *D sky130_fd_sc_hd__nand3_1
*CAP
1 *345:B1 5.14129e-05
2 *342:Y 0.000139476
3 *39:10 0.000190888
4 *345:B1 *384:CLK 5.3304e-05
5 *39:10 *304:A1 5.5792e-05
6 *39:10 *101:12 0.000166207
7 *39:10 *120:12 0
8 *384:D *345:B1 9.41704e-05
*RES
1 *342:Y *39:10 40.8793 
2 *39:10 *345:B1 39.0979 
*END

*D_NET *40 0.0077485
*CONN
*I *344:C I *D sky130_fd_sc_hd__or3_1
*I *357:B1 I *D sky130_fd_sc_hd__o211ai_2
*I *355:B1 I *D sky130_fd_sc_hd__o2111ai_1
*I *343:Y O *D sky130_fd_sc_hd__inv_2
*CAP
1 *344:C 8.36647e-05
2 *357:B1 0
3 *355:B1 0.000297304
4 *343:Y 0.000101043
5 *40:46 0.000985019
6 *40:12 0.000886844
7 *40:8 0.00159194
8 *355:B1 *355:C1 0.000131536
9 *355:B1 *357:A1 6.91034e-05
10 *355:B1 *357:C1 3.39356e-05
11 *355:B1 *360:A2 0.000100318
12 *355:B1 *360:B1 5.56356e-05
13 *355:B1 *360:D1 3.27248e-05
14 *355:B1 *45:26 0.000246834
15 *355:B1 *54:10 5.68113e-05
16 *355:B1 *59:115 3.09852e-05
17 *40:8 *397:A 1.35714e-05
18 *40:8 *125:34 1.91573e-05
19 *40:8 *126:19 9.86777e-06
20 *40:12 *300:A1_N 0.000274734
21 *40:12 *300:A2_N 0.000143423
22 *40:12 *300:B1 6.66692e-05
23 *40:12 *300:B2 3.90703e-05
24 *40:12 *357:A1 0.000120684
25 *40:12 *357:C1 6.31305e-06
26 *40:12 *397:A 6.17437e-06
27 *40:12 *54:10 5.5792e-05
28 *40:12 *59:138 5.5792e-05
29 *40:12 *76:12 4.07772e-05
30 *40:46 *401:A 0.00010366
31 *40:46 *60:44 4.09352e-05
32 *40:46 *62:50 0
33 *40:46 *77:10 6.4544e-05
34 *40:46 *83:10 3.88629e-05
35 *40:46 *101:10 3.88725e-05
36 *40:46 *121:32 0.00023607
37 *40:46 *125:14 0.000131708
38 *40:46 *125:16 0.000322041
39 *40:46 *125:22 0.000271962
40 *40:46 *125:34 0.000312203
41 *40:46 *126:8 6.2088e-05
42 *40:46 *135:110 0.000343687
43 *40:46 *136:10 8.0612e-06
44 *342:B *344:C 2.40405e-05
45 *10:10 *40:46 0.000194043
*RES
1 *343:Y *40:8 24.595 
2 *40:8 *40:12 12.0764 
3 *40:12 *355:B1 32.2386 
4 *40:12 *357:B1 23 
5 *40:8 *40:46 38.0964 
6 *40:46 *344:C 39.4707 
*END

*D_NET *41 0.000444277
*CONN
*I *345:B2 I *D sky130_fd_sc_hd__o2bb2ai_1
*I *344:X O *D sky130_fd_sc_hd__or3_1
*CAP
1 *345:B2 0
2 *344:X 4.48487e-05
3 *41:8 4.48487e-05
4 *41:8 *113:71 2.77955e-05
5 *41:8 *113:73 0.000143803
6 *337:C *41:8 0.000171599
7 *342:B *41:8 1.13812e-05
*RES
1 *344:X *41:8 40.2579 
2 *41:8 *345:B2 38 
*END

*D_NET *42 0.00614266
*CONN
*I *349:C1 I *D sky130_fd_sc_hd__o2111ai_1
*I *350:A1 I *D sky130_fd_sc_hd__o21ai_1
*I *346:Y O *D sky130_fd_sc_hd__inv_2
*CAP
1 *349:C1 0
2 *350:A1 8.16641e-05
3 *346:Y 0.00016349
4 *42:37 0.00206132
5 *42:8 0.00230647
6 *350:A1 *352:A 3.86731e-05
7 *350:A1 *45:26 5.11621e-05
8 *42:8 *43:42 0.000379423
9 *42:8 *47:8 8.50457e-05
10 *42:8 *135:20 0.000226657
11 *42:37 *308:B1 0
12 *42:37 *389:A 5.561e-05
13 *42:37 *43:30 0.00011154
14 *42:37 *43:42 6.12392e-05
15 *42:37 *59:138 7.67977e-05
16 *42:37 *82:18 6.42902e-05
17 *42:37 *82:24 2.63116e-05
18 *42:37 *129:81 8.97816e-05
19 *42:37 *135:20 0.000130226
20 *42:37 *135:52 0.000132957
*RES
1 *346:Y *42:8 43.075 
2 *42:8 *350:A1 39.595 
3 *42:8 *42:37 41.622 
4 *42:37 *349:C1 23 
*END

*D_NET *43 0.00766541
*CONN
*I *350:A2 I *D sky130_fd_sc_hd__o21ai_1
*I *356:A2 I *D sky130_fd_sc_hd__o21ai_1
*I *347:Y O *D sky130_fd_sc_hd__a211oi_2
*CAP
1 *350:A2 0.000152572
2 *356:A2 0
3 *347:Y 0.000336195
4 *43:42 0.000711826
5 *43:30 0.00156696
6 *43:24 0.0011307
7 *43:14 0.000764329
8 *350:A2 *45:26 0.000181797
9 *43:14 *321:A1 0.000114266
10 *43:14 *58:30 3.90856e-05
11 *43:14 *64:51 2.14265e-05
12 *43:14 *67:31 0.000252149
13 *43:14 *107:16 0.000188356
14 *43:14 *116:104 2.17681e-05
15 *43:14 *144:69 3.80708e-05
16 *43:14 *145:25 5.3304e-05
17 *43:24 *319:A1 1.21972e-05
18 *43:24 *63:88 0.00014815
19 *43:24 *103:8 0.000153837
20 *43:24 *108:8 0.00031328
21 *43:24 *110:18 1.61361e-05
22 *43:30 *59:90 0.000445462
23 *43:30 *59:107 0
24 *43:30 *107:10 0
25 *43:30 *122:8 2.14486e-05
26 *43:30 *135:20 5.36126e-05
27 *43:30 *135:26 5.86215e-05
28 *43:42 *356:B1 0.000114404
29 *43:42 *46:12 3.12315e-05
30 *43:42 *122:8 1.37712e-05
31 *43:42 *131:14 4.21742e-05
32 *6:17 *43:30 0
33 *6:17 *43:42 8.73253e-05
34 *14:10 *43:30 2.87443e-05
35 *42:8 *43:42 0.000379423
36 *42:37 *43:30 0.00011154
37 *42:37 *43:42 6.12392e-05
*RES
1 *347:Y *43:14 49.094 
2 *43:14 *43:24 44.9911 
3 *43:24 *43:30 13.7129 
4 *43:30 *43:42 28.1121 
5 *43:42 *356:A2 23 
6 *43:30 *350:A2 40.0507 
*END

*D_NET *44 0.00333259
*CONN
*I *349:B1 I *D sky130_fd_sc_hd__o2111ai_1
*I *360:C1 I *D sky130_fd_sc_hd__o2111ai_1
*I *348:Y O *D sky130_fd_sc_hd__nor2_1
*CAP
1 *349:B1 0
2 *360:C1 0
3 *348:Y 0.000149065
4 *44:37 0.000251746
5 *44:24 0.000198241
6 *44:18 0.000808632
7 *44:12 0.000507709
8 *44:12 *348:A 6.88031e-05
9 *44:12 *348:B 0
10 *44:12 *97:10 7.72341e-05
11 *44:12 *107:30 0.000137788
12 *44:12 *114:20 2.1559e-05
13 *44:12 *135:35 4.49778e-05
14 *44:18 *112:12 8.0833e-05
15 *44:18 *112:58 0.000126454
16 *44:24 *354:C 0
17 *44:24 *73:59 0.00023338
18 *44:37 *308:B1 1.12487e-05
19 *44:37 *389:A 0.00018382
20 *44:37 *73:49 1.01436e-05
21 *44:37 *73:59 0.000293689
22 *44:37 *112:58 6.75097e-05
23 *13:20 *44:12 5.97612e-05
*RES
1 *348:Y *44:12 41.9771 
2 *44:12 *44:18 21.8357 
3 *44:18 *44:24 33.3143 
4 *44:24 *360:C1 23 
5 *44:18 *44:37 35.1371 
6 *44:37 *349:B1 23 
*END

*D_NET *45 0.00486525
*CONN
*I *350:B1 I *D sky130_fd_sc_hd__o21ai_1
*I *349:Y O *D sky130_fd_sc_hd__o2111ai_1
*CAP
1 *350:B1 0
2 *349:Y 0.000350764
3 *45:26 0.00110032
4 *45:16 0.00145108
5 *45:16 *307:C_N 2.7049e-05
6 *45:16 *308:B1 0.000290155
7 *45:16 *348:B 3.81033e-05
8 *45:16 *62:16 9.88259e-05
9 *45:16 *63:48 1.05441e-05
10 *45:16 *73:59 0.000205727
11 *45:16 *135:52 5.69647e-05
12 *45:26 *352:A 0.000102145
13 *45:26 *360:A2 0.000100318
14 *45:26 *59:107 0.000397596
15 *45:26 *59:115 6.30071e-06
16 *45:26 *122:23 9.16089e-05
17 *350:A1 *45:26 5.11621e-05
18 *350:A2 *45:26 0.000181797
19 *355:B1 *45:26 0.000246834
20 *21:10 *45:26 5.79559e-05
*RES
1 *349:Y *45:16 45.5607 
2 *45:16 *45:26 32.4829 
3 *45:26 *350:B1 23 
*END

*D_NET *46 0.00113383
*CONN
*I *356:A1 I *D sky130_fd_sc_hd__o21ai_1
*I *351:Y O *D sky130_fd_sc_hd__inv_2
*CAP
1 *356:A1 0
2 *351:Y 0.000266402
3 *46:12 0.000266402
4 *46:12 *346:A 0.000100069
5 *46:12 *356:B1 0.000289877
6 *46:12 *135:20 0.000102389
7 *6:17 *46:12 2.18286e-05
8 *22:10 *46:12 5.56356e-05
9 *43:42 *46:12 3.12315e-05
*RES
1 *351:Y *46:12 30.0014 
2 *46:12 *356:A1 23 
*END

*D_NET *47 0.00201462
*CONN
*I *354:B I *D sky130_fd_sc_hd__and4_1
*I *352:X O *D sky130_fd_sc_hd__or2_1
*CAP
1 *354:B 0.000784062
2 *352:X 3.87475e-05
3 *47:8 0.000822809
4 *354:B *306:B 2.95423e-05
5 *354:B *98:6 5.8118e-05
6 *354:B *98:17 0.000102389
7 *354:B *123:6 6.74969e-06
8 *47:8 *135:20 8.71559e-05
9 *42:8 *47:8 8.50457e-05
*RES
1 *352:X *47:8 39.2014 
2 *47:8 *354:B 47.1971 
*END

*D_NET *48 0.00160822
*CONN
*I *359:A I *D sky130_fd_sc_hd__and2_1
*I *358:B I *D sky130_fd_sc_hd__nor2_1
*I *354:D I *D sky130_fd_sc_hd__and4_1
*I *353:Y O *D sky130_fd_sc_hd__nand2_1
*CAP
1 *359:A 1.59011e-05
2 *358:B 2.30556e-05
3 *354:D 0
4 *353:Y 0.000148257
5 *48:23 5.86765e-05
6 *48:16 0.000229167
7 *48:6 0.000397143
8 *359:A *124:18 5.79559e-05
9 *48:6 *356:B1 0.000105934
10 *48:6 *358:A 5.3304e-05
11 *48:6 *124:18 9.41704e-05
12 *48:16 *50:12 0.000262489
13 *48:16 *52:10 5.24008e-05
14 *48:23 *124:18 5.56356e-05
15 *13:8 *48:6 5.41288e-05
*RES
1 *353:Y *48:6 26.9564 
2 *48:6 *48:16 35.1579 
3 *48:16 *354:D 23 
4 *48:6 *48:23 0.621429 
5 *48:23 *358:B 23.4971 
6 *48:23 *359:A 23.6214 
*END

*D_NET *49 0.000556292
*CONN
*I *355:D1 I *D sky130_fd_sc_hd__o2111ai_1
*I *354:X O *D sky130_fd_sc_hd__and4_1
*CAP
1 *355:D1 0
2 *354:X 0.000116674
3 *49:10 0.000116674
4 *49:10 *354:C 0.000133658
5 *49:10 *53:8 0.000133658
6 *49:10 *98:17 5.56279e-05
*RES
1 *354:X *49:10 40.5271 
2 *49:10 *355:D1 38 
*END

*D_NET *50 0.00357137
*CONN
*I *356:B1 I *D sky130_fd_sc_hd__o21ai_1
*I *355:Y O *D sky130_fd_sc_hd__o2111ai_1
*CAP
1 *356:B1 0.000553638
2 *355:Y 0.000484502
3 *50:12 0.00103814
4 *356:B1 *346:A 0.000142423
5 *356:B1 *358:A 2.93747e-05
6 *50:12 *306:B 0.000194414
7 *50:12 *354:C 0.000181408
8 *50:12 *358:A 5.94125e-05
9 *50:12 *53:8 8.70905e-06
10 *6:17 *356:B1 0.000102389
11 *13:20 *50:12 4.26047e-06
12 *43:42 *356:B1 0.000114404
13 *46:12 *356:B1 0.000289877
14 *48:6 *356:B1 0.000105934
15 *48:16 *50:12 0.000262489
*RES
1 *355:Y *50:12 47.3836 
2 *50:12 *356:B1 49.7864 
*END

*D_NET *51 0.000891204
*CONN
*I *361:A2_N I *D sky130_fd_sc_hd__o2bb2ai_1
*I *357:Y O *D sky130_fd_sc_hd__o211ai_2
*CAP