*SPEF "ieee 1481-1999"
*DESIGN "pes_brg"
*DATE "11:11:11 Fri 11 11, 1111"
*VENDOR "OpenRCX"
*PROGRAM "Parallel Extraction"
*VERSION "1.0"
*DESIGN_FLOW "NAME_SCOPE LOCAL" "PIN_CAP NONE"
*DIVIDER /
*DELIMITER :
*BUS_DELIMITER []
*T_UNIT 1 NS
*C_UNIT 1 PF
*R_UNIT 1 OHM
*L_UNIT 1 HENRY

*NAME_MAP
*3 clk
*4 clkout
*5 reset
*6 sel[0]
*7 sel[1]
*8 _000_
*9 _001_
*10 _002_
*11 _003_
*12 _004_
*13 _005_
*14 _006_
*15 _007_
*16 _008_
*17 _009_
*18 _010_
*19 _011_
*20 _012_
*21 _013_
*22 _014_
*23 _015_
*24 _016_
*25 _017_
*26 _018_
*27 _019_
*28 _020_
*29 _021_
*30 _022_
*31 _023_
*32 _024_
*33 _025_
*34 _026_
*35 _027_
*36 _028_
*37 _029_
*38 _030_
*39 _031_
*40 _032_
*41 _033_
*42 _034_
*43 _035_
*44 _036_
*45 _037_
*46 _038_
*47 _039_
*48 _040_
*49 _041_
*50 _042_
*51 _043_
*52 _044_
*53 _045_
*54 _046_
*55 _047_
*56 _048_
*57 _049_
*58 _050_
*59 _051_
*60 _052_
*61 _053_
*62 _054_
*63 _055_
*64 _056_
*65 _057_
*66 _058_
*67 _059_
*68 _060_
*69 _061_
*70 _062_
*71 _063_
*72 _064_
*73 _065_
*74 _066_
*75 _067_
*76 _068_
*77 _069_
*78 _070_
*79 _071_
*80 _072_
*81 _073_
*82 _074_
*83 _075_
*84 _076_
*85 _077_
*86 _078_
*87 _079_
*88 _080_
*89 _081_
*90 _082_
*91 _083_
*92 _084_
*93 _085_
*94 _086_
*95 _087_
*96 _088_
*97 _089_
*98 _090_
*99 _091_
*100 _092_
*101 _093_
*102 _094_
*103 _095_
*104 _096_
*105 _097_
*106 _098_
*107 _099_
*108 _100_
*109 _101_
*110 _102_
*111 clknet_0_clk
*112 clknet_1_0__leaf_clk
*113 clknet_1_1__leaf_clk
*114 cnt1\[0\]
*115 cnt1\[1\]
*116 cnt1\[2\]
*117 cnt1\[3\]
*118 cnt1\[4\]
*119 cnt1\[5\]
*120 cnt2\[0\]
*121 cnt2\[1\]
*122 cnt3\[0\]
*123 cnt3\[1\]
*124 cnt3\[2\]
*125 cnt4\[0\]
*126 cnt4\[1\]
*127 cnt4\[2\]
*128 cnt4\[3\]
*129 net1
*130 net13
*131 net14
*132 net15
*133 net16
*134 net17
*135 net2
*136 net20
*137 net21
*138 net22
*139 net23
*140 net24
*141 net3
*142 net4
*143 net5
*144 net6
*145 net7
*146 net9
*147 FILLER_0_0_19
*148 FILLER_0_0_27
*149 FILLER_0_0_3
*150 FILLER_0_0_37
*151 FILLER_0_0_57
*152 FILLER_0_0_76
*153 FILLER_0_0_85
*154 FILLER_0_10_18
*155 FILLER_0_10_3
*156 FILLER_0_10_32
*157 FILLER_0_10_38
*158 FILLER_0_10_47
*159 FILLER_0_10_79
*160 FILLER_0_10_83
*161 FILLER_0_10_85
*162 FILLER_0_11_27
*163 FILLER_0_12_27
*164 FILLER_0_12_42
*165 FILLER_0_12_55
*166 FILLER_0_12_72
*167 FILLER_0_12_83
*168 FILLER_0_12_85
*169 FILLER_0_13_84
*170 FILLER_0_14_11
*171 FILLER_0_14_19
*172 FILLER_0_14_27
*173 FILLER_0_14_3
*174 FILLER_0_14_40
*175 FILLER_0_14_48
*176 FILLER_0_14_63
*177 FILLER_0_14_78
*178 FILLER_0_14_85
*179 FILLER_0_1_3
*180 FILLER_0_1_37
*181 FILLER_0_1_54
*182 FILLER_0_1_82
*183 FILLER_0_2_26
*184 FILLER_0_2_29
*185 FILLER_0_2_54
*186 FILLER_0_2_63
*187 FILLER_0_2_7
*188 FILLER_0_2_81
*189 FILLER_0_2_85
*190 FILLER_0_3_27
*191 FILLER_0_3_48
*192 FILLER_0_3_57
*193 FILLER_0_3_72
*194 FILLER_0_3_81
*195 FILLER_0_3_85
*196 FILLER_0_4_29
*197 FILLER_0_4_3
*198 FILLER_0_4_61
*199 FILLER_0_4_82
*200 FILLER_0_4_85
*201 FILLER_0_5_32
*202 FILLER_0_5_71
*203 FILLER_0_5_84
*204 FILLER_0_6_29
*205 FILLER_0_6_55
*206 FILLER_0_6_83
*207 FILLER_0_6_85
*208 FILLER_0_7_17
*209 FILLER_0_7_64
*210 FILLER_0_8_39
*211 FILLER_0_8_85
*212 FILLER_0_9_44
*213 FILLER_0_9_85
*214 PHY_EDGE_ROW_0_Left_15
*215 PHY_EDGE_ROW_0_Right_0
*216 PHY_EDGE_ROW_10_Left_25
*217 PHY_EDGE_ROW_10_Right_10
*218 PHY_EDGE_ROW_11_Left_26
*219 PHY_EDGE_ROW_11_Right_11
*220 PHY_EDGE_ROW_12_Left_27
*221 PHY_EDGE_ROW_12_Right_12
*222 PHY_EDGE_ROW_13_Left_28
*223 PHY_EDGE_ROW_13_Right_13
*224 PHY_EDGE_ROW_14_Left_29
*225 PHY_EDGE_ROW_14_Right_14
*226 PHY_EDGE_ROW_1_Left_16
*227 PHY_EDGE_ROW_1_Right_1
*228 PHY_EDGE_ROW_2_Left_17
*229 PHY_EDGE_ROW_2_Right_2
*230 PHY_EDGE_ROW_3_Left_18
*231 PHY_EDGE_ROW_3_Right_3
*232 PHY_EDGE_ROW_4_Left_19
*233 PHY_EDGE_ROW_4_Right_4
*234 PHY_EDGE_ROW_5_Left_20
*235 PHY_EDGE_ROW_5_Right_5
*236 PHY_EDGE_ROW_6_Left_21
*237 PHY_EDGE_ROW_6_Right_6
*238 PHY_EDGE_ROW_7_Left_22
*239 PHY_EDGE_ROW_7_Right_7
*240 PHY_EDGE_ROW_8_Left_23
*241 PHY_EDGE_ROW_8_Right_8
*242 PHY_EDGE_ROW_9_Left_24
*243 PHY_EDGE_ROW_9_Right_9
*244 TAP_TAPCELL_ROW_0_30
*245 TAP_TAPCELL_ROW_0_31
*246 TAP_TAPCELL_ROW_0_32
*247 TAP_TAPCELL_ROW_10_46
*248 TAP_TAPCELL_ROW_10_47
*249 TAP_TAPCELL_ROW_11_48
*250 TAP_TAPCELL_ROW_12_49
*251 TAP_TAPCELL_ROW_12_50
*252 TAP_TAPCELL_ROW_13_51
*253 TAP_TAPCELL_ROW_14_52
*254 TAP_TAPCELL_ROW_14_53
*255 TAP_TAPCELL_ROW_14_54
*256 TAP_TAPCELL_ROW_1_33
*257 TAP_TAPCELL_ROW_2_34
*258 TAP_TAPCELL_ROW_2_35
*259 TAP_TAPCELL_ROW_3_36
*260 TAP_TAPCELL_ROW_4_37
*261 TAP_TAPCELL_ROW_4_38
*262 TAP_TAPCELL_ROW_5_39
*263 TAP_TAPCELL_ROW_6_40
*264 TAP_TAPCELL_ROW_6_41
*265 TAP_TAPCELL_ROW_7_42
*266 TAP_TAPCELL_ROW_8_43
*267 TAP_TAPCELL_ROW_8_44
*268 TAP_TAPCELL_ROW_9_45
*269 _103_
*270 _104_
*271 _105_
*272 _106_
*273 _107_
*274 _108_
*275 _109_
*276 _110_
*277 _111_
*278 _112_
*279 _113_
*280 _114_
*281 _115_
*282 _116_
*283 _117_
*284 _118_
*285 _119_
*286 _120_
*287 _121_
*288 _122_
*289 _123_
*290 _124_
*291 _125_
*292 _126_
*293 _127_
*294 _128_
*295 _129_
*296 _130_
*297 _131_
*298 _132_
*299 _133_
*300 _134_
*301 _135_
*302 _136_
*303 _137_
*304 _138_
*305 _139_
*306 _140_
*307 _141_
*308 _142_
*309 _143_
*310 _144_
*311 _145_
*312 _146_
*313 _147_
*314 _148_
*315 _149_
*316 _150_
*317 _151_
*318 _152_
*319 _153_
*320 _154_
*321 _155_
*322 _156_
*323 _157_
*324 _158_
*325 _159_
*326 _160_
*327 _161_
*328 _162_
*329 _163_
*330 _164_
*331 _165_
*332 _166_
*333 _167_
*334 _168_
*335 _169_
*336 _170_
*337 _171_
*338 _172_
*339 _173_
*340 _174_
*341 _175_
*342 _176_
*343 _177_
*344 _178_
*345 _179_
*346 _180_
*347 _181_
*348 _182_
*349 _183_
*350 _184_
*351 _185_
*352 _186_
*353 _187_
*354 _188_
*355 _189_
*356 _190_
*357 _191_
*358 _192_
*359 _193_
*360 _194_
*361 _195_
*362 _196_
*363 _197_
*364 _198_
*365 _199_
*366 _200_
*367 _201_
*368 _202_
*369 _203_
*370 _204_
*371 _205_
*372 _206_
*373 _207_
*374 _208_
*375 _209_
*376 _210_
*377 _211_
*378 _212_
*379 _213_
*380 _214_
*381 _215_
*382 _216_
*383 _217_
*384 _218_
*385 _219_
*386 _220_
*387 _221_
*388 clkbuf_0_clk
*389 clkbuf_1_0__f_clk
*390 clkbuf_1_1__f_clk
*391 clone2
*392 hold10
*393 hold11
*394 hold12
*395 hold13
*396 hold16
*397 hold17
*398 hold18
*399 hold19
*400 hold2
*401 hold20
*402 hold9
*403 input1
*404 input2
*405 input3
*406 output4
*407 rebuffer1
*408 rebuffer3

*PORTS
clk I
clkout O
reset I
sel[0] I
sel[1] I

*D_NET *3 0.00578687
*CONN
*P clk I
*I *388:A I *D sky130_fd_sc_hd__clkbuf_16
*CAP
1 clk 0.0019689
2 *388:A 0.0019689
3 *388:A *270:B 6.05243e-05
4 *388:A *332:B1 1.92353e-05
5 *388:A *333:B1 0.000128049
6 *388:A *365:C 0.000174586
7 *388:A *382:D 0.000297324
8 *388:A *391:A 0.000108616
9 *388:A *24:35 0.000127428
10 *388:A *56:16 4.66638e-05
11 *388:A *72:12 0.000132167
12 *388:A *107:98 0.000310289
13 *388:A *119:10 0.000295954
14 *388:A *119:12 0.000148233
*RES
1 clk *388:A 18.7546 
*END

*D_NET *4 0.00121173
*CONN
*P clkout O
*I *406:X O *D sky130_fd_sc_hd__clkbuf_4
*CAP
1 clkout 0.000550069
2 *406:X 0.000550069
3 clkout *302:B1 0.000111589
*RES
1 *406:X clkout 12.42 
*END

*D_NET *5 0.002029
*CONN
*P reset I
*I *403:A I *D sky130_fd_sc_hd__buf_2
*CAP
1 reset 0.000606899
2 *403:A 0.000606899
3 *403:A *318:B 2.24574e-05
4 *403:A *378:CLK 0.000149859
5 *403:A *386:CLK 0.000203818
6 *403:A *404:A 3.95538e-05
7 *403:A *107:10 4.57966e-05
8 *403:A *112:27 0.000353714
*RES
1 reset *403:A 15.1835 
*END

*D_NET *6 0.00265635
*CONN
*P sel[0] I
*I *404:A I *D sky130_fd_sc_hd__clkbuf_2
*CAP
1 sel[0] 0.000996821
2 *404:A 0.000996821
3 *404:A *356:A1 2.01565e-05
4 *404:A *356:A2 7.80195e-05
5 *404:A *356:B1 8.64421e-05
6 *404:A *385:D 0.000133865
7 *404:A *386:D 0.000137647
8 *404:A *43:30 0
9 *404:A *107:10 8.0153e-05
10 *404:A *112:27 0
11 *404:A *129:12 8.68724e-05
12 *404:A *135:26 0
13 *403:A *404:A 3.95538e-05
*RES
1 sel[0] *404:A 16.9231 
*END

*D_NET *7 0.00132841
*CONN
*P sel[1] I
*I *405:A I *D sky130_fd_sc_hd__buf_1
*CAP
1 sel[1] 0.000557044
2 *405:A 0.000557044
3 *405:A *361:A1_N 4.99619e-05
4 *405:A *361:B1 0.000164358
*RES
1 sel[1] *405:A 13.215 
*END

*D_NET *8 0.00107107
*CONN
*I *372:D I *D sky130_fd_sc_hd__dfxtp_2
*I *279:X O *D sky130_fd_sc_hd__o21a_1
*CAP
1 *372:D 0.000326268
2 *279:X 0.000326268
3 *372:D *279:A2 0.000120655
4 *372:D *279:B1 2.64842e-05
5 *372:D *292:C 8.26797e-05
6 *372:D *303:A 7.06865e-05
7 *372:D *315:A 1.13345e-05
8 *372:D *372:CLK 0.000106697
*RES
1 *279:X *372:D 12.0787 
*END

*D_NET *9 0.00123782
*CONN
*I *373:D I *D sky130_fd_sc_hd__dfxtp_2
*I *288:Y O *D sky130_fd_sc_hd__o2bb2ai_1
*CAP
1 *373:D 0.000314959
2 *288:Y 0.000314959
3 *373:D *361:B2 9.04781e-05
4 *373:D *82:24 7.03276e-05
5 *373:D *112:58 0.00028679
6 *373:D *112:65 0.00016031
*RES
1 *288:Y *373:D 13.5638 
*END

*D_NET *10 0.000758448
*CONN
*I *374:D I *D sky130_fd_sc_hd__dfxtp_1
*I *296:Y O *D sky130_fd_sc_hd__o21ai_1
*CAP
1 *374:D 0.000169404
2 *296:Y 0.000169404
3 *374:D *279:A2 1.54049e-05
4 *374:D *296:A1 6.62684e-05
5 *374:D *303:A 0.000159488
6 *374:D *344:C 0.000157828
7 *374:D *101:10 2.06497e-05
*RES
1 *296:Y *374:D 11.0588 
*END

*D_NET *11 0.00141896
*CONN
*I *375:D I *D sky130_fd_sc_hd__dfxtp_1
*I *300:Y O *D sky130_fd_sc_hd__o2bb2ai_1
*CAP
1 *375:D 0.000554263
2 *300:Y 0.000554263
3 *375:D *300:A1_N 3.79532e-05
4 *375:D *300:B1 0.000269916
5 *375:D *128:8 0
6 *375:D *141:18 2.56752e-06
*RES
1 *300:Y *375:D 16.1437 
*END

*D_NET *12 0.000748923
*CONN
*I *376:D I *D sky130_fd_sc_hd__dfxtp_1
*I *311:Y O *D sky130_fd_sc_hd__a32oi_1
*CAP
1 *376:D 0.00016727
2 *311:Y 0.00016727
3 *376:D *311:A1 0.000136679
4 *376:D *311:B1 5.41296e-05
5 *376:D *311:B2 3.89366e-05
6 *376:D *113:10 2.55342e-05
7 *376:D *113:12 0.000159104
*RES
1 *311:Y *376:D 11.1637 
*END

*D_NET *13 0.00307037
*CONN
*I *377:D I *D sky130_fd_sc_hd__dfxtp_2
*I *314:X O *D sky130_fd_sc_hd__clkbuf_1
*CAP
1 *377:D 0.000908089
2 *314:X 0.000908089
3 *377:D *271:A 3.75882e-06
4 *377:D *272:A 0.000137427
5 *377:D *305:A 0.000109839
6 *377:D *306:B 7.65674e-05
7 *377:D *314:A 0.000406777
8 *377:D *316:A 4.66108e-05
9 *377:D *316:B 0.000105805
10 *377:D *319:A4 0.000119251
11 *377:D *355:A1 3.90157e-05
12 *377:D *356:B1 4.56429e-06
13 *377:D *44:18 5.65627e-05
14 *377:D *48:6 5.05437e-05
15 *377:D *63:71 1.14192e-05
16 *377:D *67:21 1.77945e-05
17 *377:D *107:28 6.54361e-06
18 *377:D *107:30 3.83415e-05
19 *377:D *114:6 2.33708e-05
*RES
1 *314:X *377:D 25.6537 
*END

*D_NET *14 0.00111463
*CONN
*I *378:D I *D sky130_fd_sc_hd__dfxtp_1
*I *319:X O *D sky130_fd_sc_hd__a41o_1
*CAP
1 *378:D 0.000354875
2 *319:X 0.000354875
3 *378:D *314:A 5.54358e-05
4 *378:D *319:A1 8.52883e-05
5 *378:D *319:B1 8.52883e-05
6 *378:D *369:B 9.88165e-05
7 *378:D *43:30 3.2274e-05
8 *378:D *129:40 4.77757e-05
*RES
1 *319:X *378:D 13.7288 
*END

*D_NET *15 0.000487344
*CONN
*I *379:D I *D sky130_fd_sc_hd__dfxtp_2
*I *322:X O *D sky130_fd_sc_hd__a2bb2o_1
*CAP
1 *379:D 7.91867e-05
2 *322:X 7.91867e-05
3 *379:D *322:A1_N 4.77769e-05
4 *379:D *325:A3 7.70553e-06
5 *379:D *116:29 0.000135382
6 *379:D *143:10 0.000138106
*RES
1 *322:X *379:D 9.42375 
*END

*D_NET *16 0.000467857
*CONN
*I *380:D I *D sky130_fd_sc_hd__dfxtp_1
*I *325:X O *D sky130_fd_sc_hd__a32o_1
*CAP
1 *380:D 0.000126056
2 *325:X 0.000126056
3 *380:D *325:A2 9.34295e-05
4 *380:D *325:A3 2.75229e-05
5 *380:D *379:CLK 9.47911e-05
*RES
1 *325:X *380:D 9.45375 
*END

*D_NET *17 0.000865746
*CONN
*I *381:D I *D sky130_fd_sc_hd__dfxtp_1
*I *328:X O *D sky130_fd_sc_hd__a32o_1
*CAP
1 *381:D 0.00014934
2 *328:X 0.00014934
3 *381:D *323:C 0.000120945
4 *381:D *364:A 6.37208e-05
5 *381:D *57:8 0
6 *381:D *113:18 0.000312269
7 *381:D *117:58 7.01303e-05
*RES
1 *328:X *381:D 11.7338 
*END

*D_NET *18 0.00127871
*CONN
*I *382:D I *D sky130_fd_sc_hd__dfxtp_1
*I *333:X O *D sky130_fd_sc_hd__o22a_1
*CAP
1 *382:D 0.000277776
2 *333:X 0.000277776
3 *382:D *328:B1 0
4 *382:D *332:B1 0.00011178
5 *382:D *113:14 0.000314053
6 *388:A *382:D 0.000297324
*RES
1 *333:X *382:D 13.7738 
*END

*D_NET *19 0.00041445
*CONN
*I *383:D I *D sky130_fd_sc_hd__dfxtp_1
*I *340:Y O *D sky130_fd_sc_hd__a21oi_1
*CAP
1 *383:D 0.000114985
2 *340:Y 0.000114985
3 *383:D *337:A 0.000136177
4 *383:D *32:10 4.83032e-05
*RES
1 *340:Y *383:D 9.48375 
*END

*D_NET *20 0.000561681
*CONN
*I *384:D I *D sky130_fd_sc_hd__dfxtp_1
*I *345:Y O *D sky130_fd_sc_hd__o2bb2ai_1
*CAP
1 *384:D 0.000140556
2 *345:Y 0.000140556
3 *384:D *345:A1_N 3.13354e-05
4 *384:D *345:B1 8.23457e-05
5 *384:D *384:CLK 1.91597e-05
6 *384:D *121:6 6.37014e-05
7 *384:D *121:12 8.40269e-05
*RES
1 *345:Y *384:D 5.96375 
*END

*D_NET *21 0.000686793
*CONN
*I *385:D I *D sky130_fd_sc_hd__dfxtp_1
*I *350:Y O *D sky130_fd_sc_hd__o21ai_1
*CAP
1 *385:D 0.000181174
2 *350:Y 0.000181174
3 *385:D *350:B1 4.89295e-05
4 *385:D *112:12 4.82319e-06
5 *385:D *129:12 0.000136828
6 *404:A *385:D 0.000133865
*RES
1 *350:Y *385:D 10.4587 
*END

*D_NET *22 0.000423439
*CONN
*I *386:D I *D sky130_fd_sc_hd__dfxtp_1
*I *356:Y O *D sky130_fd_sc_hd__o21ai_1
*CAP
1 *386:D 0.000119008
2 *356:Y 0.000119008
3 *386:D *356:A1 4.77757e-05
4 *404:A *386:D 0.000137647
*RES
1 *356:Y *386:D 9.42375 
*END

*D_NET *23 0.000297401
*CONN
*I *387:D I *D sky130_fd_sc_hd__dfxtp_1
*I *361:Y O *D sky130_fd_sc_hd__o2bb2ai_1
*CAP
1 *387:D 7.69032e-05
2 *361:Y 7.69032e-05
3 *387:D *361:B2 0.000139314
4 *387:D *375:CLK 0
5 *387:D *112:58 4.28112e-06
*RES
1 *361:Y *387:D 8.97375 
*END

*D_NET *24 0.00336781
*CONN
*I *332:A2 I *D sky130_fd_sc_hd__o211a_1
*I *326:B I *D sky130_fd_sc_hd__or2_1
*I *325:A2 I *D sky130_fd_sc_hd__a32o_1
*I *323:Y O *D sky130_fd_sc_hd__nand4_1
*CAP
1 *332:A2 0
2 *326:B 6.65994e-05
3 *325:A2 8.7588e-05
4 *323:Y 8.02575e-05
5 *24:35 0.000987259
6 *24:10 0.00108851
7 *325:A2 *325:A3 1.16578e-05
8 *325:A2 *379:CLK 6.44978e-06
9 *325:A2 *67:71 1.03323e-05
10 *325:A2 *116:42 0.000104457
11 *326:B *326:A 0
12 *326:B *332:C1 3.38438e-06
13 *326:B *56:20 0.000185086
14 *326:B *80:54 1.91597e-05
15 *326:B *80:56 6.51658e-05
16 *24:10 *323:C 2.69153e-05
17 *24:10 *379:CLK 6.44978e-06
18 *24:10 *113:26 7.76353e-05
19 *24:10 *116:42 0.000146257
20 *24:35 *332:B1 1.96913e-05
21 *24:35 *56:32 5.05066e-06
22 *24:35 *80:79 0.000149053
23 *380:D *325:A2 9.34295e-05
24 *388:A *24:35 0.000127428
*RES
1 *323:Y *24:10 5.8125 
2 *24:10 *325:A2 5.6625 
3 *24:10 *24:35 5.58043 
4 *24:35 *326:B 3.445 
5 *24:35 *332:A2 1.6 
*END

*D_NET *25 0.00223965
*CONN
*I *325:A3 I *D sky130_fd_sc_hd__a32o_1
*I *324:X O *D sky130_fd_sc_hd__a31o_1
*CAP
1 *325:A3 0.000712881
2 *324:X 0.000712881
3 *325:A3 *365:D 0.000189441
4 *325:A3 *379:CLK 0.000312412
5 *325:A3 *67:71 1.83847e-05
6 *325:A3 *116:12 0.000160323
7 *325:A3 *116:75 8.64421e-05
8 *325:A2 *325:A3 1.16578e-05
9 *379:D *325:A3 7.70553e-06
10 *380:D *325:A3 2.75229e-05
*RES
1 *324:X *325:A3 19.515 
*END

*D_NET *26 0.00156448
*CONN
*I *328:A2 I *D sky130_fd_sc_hd__a32o_1
*I *326:X O *D sky130_fd_sc_hd__or2_1
*CAP
1 *328:A2 0.00038601
2 *326:X 0.00038601
3 *328:A2 *328:A1 0.000158564
4 *328:A2 *328:A3 8.7152e-06
5 *328:A2 *328:B2 8.73389e-06
6 *328:A2 *80:54 0.000194271
7 *328:A2 *80:56 0.000346117
8 *328:A2 *117:58 2.47363e-05
9 *328:A2 *118:8 5.13225e-05
*RES
1 *326:X *328:A2 14.475 
*END

*D_NET *27 0.000520098
*CONN
*I *328:A3 I *D sky130_fd_sc_hd__a32o_1
*I *327:X O *D sky130_fd_sc_hd__a41o_1
*CAP
1 *328:A3 0.000112007
2 *327:X 0.000112007
3 *328:A3 *325:B2 8.35106e-05
4 *328:A3 *328:B2 7.01359e-05
5 *328:A3 *117:14 6.59891e-05
6 *328:A3 *117:58 4.97019e-05
7 *328:A3 *118:8 1.80319e-05
8 *328:A2 *328:A3 8.7152e-06
*RES
1 *327:X *328:A3 9.375 
*END

*D_NET *28 0.00147405
*CONN
*I *330:C I *D sky130_fd_sc_hd__and4_1
*I *329:X O *D sky130_fd_sc_hd__and3_1
*CAP
1 *330:C 0.000379063
2 *329:X 0.000379063
3 *330:C *274:A 2.99518e-06
4 *330:C *274:B 4.66108e-05
5 *330:C *274:C 1.7552e-05
6 *330:C *327:A1 4.66474e-05
7 *330:C *68:28 0.00016031
8 *330:C *70:18 0.000287989
9 *330:C *117:20 4.66108e-05
10 *330:C *117:29 0.000107205
*RES
1 *329:X *330:C 13.2 
*END

*D_NET *29 0.000429661
*CONN
*I *333:A2 I *D sky130_fd_sc_hd__o22a_1
*I *330:X O *D sky130_fd_sc_hd__and4_1
*CAP
1 *333:A2 0.000129354
2 *330:X 0.000129354
3 *333:A2 *407:A 1.41165e-05
4 *333:A2 *56:32 7.15381e-05
5 *333:A2 *143:10 8.52972e-05
*RES
1 *330:X *333:A2 9.21 
*END

*D_NET *30 0.00131649
*CONN
*I *333:B1 I *D sky130_fd_sc_hd__o22a_1
*I *331:X O *D sky130_fd_sc_hd__a21bo_1
*CAP
1 *333:B1 0.000440746
2 *331:X 0.000440746
3 *333:B1 *331:B1_N 4.8854e-05
4 *333:B1 *332:B1 4.86642e-05
5 *333:B1 *56:32 0
6 *333:B1 *107:98 9.48067e-05
7 *333:B1 *107:113 3.112e-05
8 *333:B1 *119:42 8.35068e-05
9 *388:A *333:B1 0.000128049
*RES
1 *331:X *333:B1 13.53 
*END

*D_NET *31 0.000452599
*CONN
*I *333:B2 I *D sky130_fd_sc_hd__o22a_1
*I *332:X O *D sky130_fd_sc_hd__o211a_1
*CAP
1 *333:B2 0.000129065
2 *332:X 0.000129065
3 *333:B2 *274:C 1.08758e-05
4 *333:B2 *327:A2 0
5 *333:B2 *56:32 7.4027e-05
6 *333:B2 *80:79 4.05358e-05
7 *333:B2 *119:42 6.90296e-05
*RES
1 *332:X *333:B2 9.93 
*END

*D_NET *32 0.00165372
*CONN
*I *340:A1 I *D sky130_fd_sc_hd__a21oi_1
*I *339:C1 I *D sky130_fd_sc_hd__a211oi_1
*I *335:A1 I *D sky130_fd_sc_hd__a21oi_1
*I *334:Y O *D sky130_fd_sc_hd__inv_2
*CAP
1 *340:A1 0
2 *339:C1 0.000122525
3 *335:A1 0.000128931
4 *334:Y 9.34449e-05
5 *32:10 0.000359098
6 *32:6 0.000201087
7 *335:A1 *337:A 6.76694e-06
8 *335:A1 *345:A1_N 0.000120655
9 *335:A1 *120:12 3.57501e-05
10 *335:A1 *121:50 2.25119e-05
11 *339:C1 *335:B1 4.71087e-05
12 *339:C1 *337:B 2.69217e-05
13 *339:C1 *345:A1_N 5.00532e-05
14 *339:C1 *393:A 8.41384e-05
15 *32:6 *334:A 4.77757e-05
16 *32:6 *340:A2 2.69217e-05
17 *32:10 *334:A 9.63869e-05
18 *32:10 *337:A 7.24028e-05
19 *32:10 *120:12 6.29387e-05
20 *383:D *32:10 4.83032e-05
*RES
1 *334:Y *32:6 2.74 
2 *32:6 *32:10 5.42 
3 *32:10 *335:A1 5.61 
4 *32:10 *339:C1 6.12 
5 *32:6 *340:A1 1.6 
*END

*D_NET *33 0.000734949
*CONN
*I *337:B I *D sky130_fd_sc_hd__nand3_1
*I *335:Y O *D sky130_fd_sc_hd__a21oi_1
*CAP
1 *337:B 0.00011874
2 *335:Y 0.00011874
3 *337:B *337:A 0.00026579
4 *337:B *340:B1 6.79482e-05
5 *337:B *113:71 0.000136809
6 *339:C1 *337:B 2.69217e-05
*RES
1 *335:Y *337:B 10.815 
*END

*D_NET *34 0.00236952
*CONN
*I *337:C I *D sky130_fd_sc_hd__nand3_1
*I *342:B I *D sky130_fd_sc_hd__nand3_1
*I *336:X O *D sky130_fd_sc_hd__o21a_1
*CAP
1 *337:C 0.000461633
2 *342:B 0.000165068
3 *336:X 0
4 *34:6 0.000626701
5 *337:C *302:B1 0.000179572
6 *337:C *338:B1 0
7 *337:C *339:A2 3.11771e-06
8 *337:C *340:B1 7.14018e-05
9 *337:C *341:B1 4.87957e-05
10 *337:C *345:A1_N 7.01303e-05
11 *337:C *345:B2 0.000142074
12 *337:C *113:71 9.40794e-05
13 *342:B *304:A1 0.000295882
14 *342:B *342:C 1.77945e-05
15 *342:B *344:A 0.000105849
16 *342:B *344:C 2.30999e-05
17 *342:B *345:B2 9.12494e-06
18 *342:B *63:133 9.09788e-06
19 *342:B *63:148 1.24708e-05
20 *342:B *113:73 3.3625e-05
*RES
1 *336:X *34:6 3.6 
2 *34:6 *342:B 7.71 
3 *34:6 *337:C 12.195 
*END

*D_NET *35 0.000342817
*CONN
*I *340:A2 I *D sky130_fd_sc_hd__a21oi_1
*I *337:Y O *D sky130_fd_sc_hd__nand3_1
*CAP
1 *340:A2 0.000145563
2 *337:Y 0.000145563
3 *340:A2 *340:B1 2.47695e-05
4 *32:6 *340:A2 2.69217e-05
*RES
1 *337:Y *340:A2 5.405 
*END

*D_NET *36 0.00121061
*CONN
*I *339:B1 I *D sky130_fd_sc_hd__a211oi_1
*I *341:B1 I *D sky130_fd_sc_hd__a21o_1
*I *338:Y O *D sky130_fd_sc_hd__o21ai_1
*CAP
1 *339:B1 5.94289e-05
2 *341:B1 0.000236329
3 *338:Y 8.65883e-05
4 *36:6 0.000382346
5 *339:B1 *335:B1 7.32549e-05
6 *341:B1 *338:B1 0.00012689
7 *341:B1 *339:A2 7.13969e-05
8 *341:B1 *345:A1_N 4.55864e-06
9 *36:6 *335:B1 0.000121019
10 *337:C *341:B1 4.87957e-05
*RES
1 *338:Y *36:6 2.74 
2 *36:6 *341:B1 9.5 
3 *36:6 *339:B1 2.395 
*END

*D_NET *37 0.000959453
*CONN
*I *340:B1 I *D sky130_fd_sc_hd__a21oi_1
*I *339:Y O *D sky130_fd_sc_hd__a211oi_1
*CAP
1 *340:B1 0.000247011
2 *339:Y 0.000247011
3 *340:B1 *302:B1 0.000154857
4 *340:B1 *337:A 8.34904e-06
5 *340:B1 *113:71 0.000138106
6 *337:B *340:B1 6.79482e-05
7 *337:C *340:B1 7.14018e-05
8 *340:A2 *340:B1 2.47695e-05
*RES
1 *339:Y *340:B1 12.72 
*END

*D_NET *38 0.000144164
*CONN
*I *345:A2_N I *D sky130_fd_sc_hd__o2bb2ai_1
*I *341:X O *D sky130_fd_sc_hd__a21o_1
*CAP
1 *345:A2_N 4.76174e-05
2 *341:X 4.76174e-05
3 *345:A2_N *345:A1_N 4.89295e-05
*RES
1 *341:X *345:A2_N 3.995 
*END

*D_NET *39 0.000592364
*CONN
*I *345:B1 I *D sky130_fd_sc_hd__o2bb2ai_1
*I *342:Y O *D sky130_fd_sc_hd__nand3_1
*CAP
1 *345:B1 0.000138793
2 *342:Y 0.000138793
3 *345:B1 *304:A1 4.77769e-05
4 *345:B1 *384:CLK 4.66108e-05
5 *345:B1 *101:12 0.000138046
6 *345:B1 *120:12 0
7 *384:D *345:B1 8.23457e-05
*RES
1 *342:Y *345:B1 10.08 
*END

*D_NET *40 0.00619956
*CONN
*I *344:C I *D sky130_fd_sc_hd__or3_1
*I *357:B1 I *D sky130_fd_sc_hd__o211ai_2
*I *355:B1 I *D sky130_fd_sc_hd__o2111ai_1
*I *343:Y O *D sky130_fd_sc_hd__inv_2
*CAP
1 *344:C 0.00067111
2 *357:B1 0
3 *355:B1 0.000212135
4 *343:Y 8.17147e-05
5 *40:12 0.000682932
6 *40:8 0.00122362
7 *344:C *278:A1 0
8 *344:C *283:C_N 6.25035e-05
9 *344:C *286:C 0.000285636
10 *344:C *296:A1 3.72007e-05
11 *344:C *300:A1_N 9.23804e-06
12 *344:C *303:A 0.000224698
13 *344:C *401:A 0.000110106
14 *344:C *60:44 3.98022e-05
15 *344:C *101:10 3.72081e-05
16 *344:C *125:14 0.000109854
17 *344:C *125:16 0.000265479
18 *344:C *125:22 0.000226575
19 *344:C *125:34 0.000260366
20 *344:C *126:10 5.05981e-05
21 *355:B1 *350:B1 0.000218045
22 *355:B1 *355:C1 0.000123359
23 *355:B1 *357:A1 6.07637e-05
24 *355:B1 *357:C1 2.99127e-05
25 *355:B1 *360:A2 8.52977e-05
26 *355:B1 *360:B1 4.77757e-05
27 *355:B1 *360:D1 3.00355e-05
28 *355:B1 *361:B1 5.18534e-05
29 *355:B1 *59:115 2.95803e-05
30 *40:8 *397:A 1.32026e-05
31 *40:8 *125:34 1.66093e-05
32 *40:8 *126:19 9.56017e-06
33 *40:12 *283:A 3.92865e-05
34 *40:12 *300:A1_N 0.00023358
35 *40:12 *300:A2_N 0.000122189
36 *40:12 *300:B1 5.93472e-05
37 *40:12 *300:B2 4.21685e-05
38 *40:12 *357:A1 0.000107042
39 *40:12 *357:A2 4.77769e-05
40 *40:12 *357:C1 6.8621e-06
41 *40:12 *361:B1 4.77769e-05
42 *40:12 *397:A 5.83121e-06
43 *342:B *344:C 2.30999e-05
44 *374:D *344:C 0.000157828
*RES
1 *343:Y *40:8 2.755 
2 *40:8 *40:12 8.745 
3 *40:12 *355:B1 8.29 
4 *40:12 *357:B1 1.6 
5 *40:8 *344:C 23.39 
*END

*D_NET *41 0.000356811
*CONN
*I *345:B2 I *D sky130_fd_sc_hd__o2bb2ai_1
*I *344:X O *D sky130_fd_sc_hd__or3_1
*CAP
1 *345:B2 3.17691e-05
2 *344:X 3.17691e-05
3 *345:B2 *113:71 2.30797e-05
4 *345:B2 *113:73 0.000118994
5 *337:C *345:B2 0.000142074
6 *342:B *345:B2 9.12494e-06
*RES
1 *344:X *345:B2 8.835 
*END

*D_NET *42 0.00494354
*CONN
*I *349:C1 I *D sky130_fd_sc_hd__o2111ai_1
*I *350:A1 I *D sky130_fd_sc_hd__o21ai_1
*I *346:Y O *D sky130_fd_sc_hd__inv_2
*CAP
1 *349:C1 0.00163732
2 *350:A1 6.05025e-05
3 *346:Y 0.000105596
4 *42:8 0.00180342
5 *349:C1 *308:B1 0
6 *349:C1 *356:A2 5.00903e-05
7 *349:C1 *357:A2 8.05765e-05
8 *349:C1 *389:A 5.2089e-05
9 *349:C1 *43:30 9.21598e-05
10 *349:C1 *82:18 5.99925e-05
11 *349:C1 *82:24 2.43961e-05
12 *349:C1 *129:81 9.33122e-05
13 *349:C1 *135:26 0.000112715
14 *349:C1 *135:52 0.000121098
15 *350:A1 *350:B1 4.7003e-05
16 *350:A1 *352:A 3.12916e-05
17 *42:8 *354:B 7.01359e-05
18 *42:8 *356:A2 0.000308633
19 *42:8 *135:26 0.000193206
*RES
1 *346:Y *42:8 7.275 
2 *42:8 *350:A1 4.755 
3 *42:8 *349:C1 12.1523 
*END

*D_NET *43 0.00609649
*CONN
*I *350:A2 I *D sky130_fd_sc_hd__o21ai_1
*I *356:A2 I *D sky130_fd_sc_hd__o21ai_1
*I *347:Y O *D sky130_fd_sc_hd__a211oi_2
*CAP
1 *350:A2 0.000116724
2 *356:A2 0.000556973
3 *347:Y 0.00107716
4 *43:30 0.00175085
5 *350:A2 *350:B1 0.000156762
6 *356:A2 *351:A 4.41948e-05
7 *356:A2 *356:A1 2.7801e-05
8 *356:A2 *356:B1 0.000104922
9 *356:A2 *122:10 1.57817e-05
10 *43:30 *315:A 3.40402e-05
11 *43:30 *318:A 2.22526e-05
12 *43:30 *319:A1 1.19928e-05
13 *43:30 *319:A2 3.88068e-05
14 *43:30 *319:B1 0.000268161
15 *43:30 *321:A1 9.66935e-05
16 *43:30 *321:A3 1.95991e-05
17 *43:30 *322:A2_N 1.74678e-05
18 *43:30 *347:C1 0.000123755
19 *43:30 *369:B 0.000365805
20 *43:30 *391:A 4.66108e-05
21 *43:30 *59:107 0
22 *43:30 *67:31 0.000213483
23 *43:30 *103:8 0.000127777
24 *43:30 *107:10 0
25 *43:30 *107:16 0.000171605
26 *43:30 *122:10 2.41307e-05
27 *43:30 *135:26 0.000101964
28 *349:C1 *356:A2 5.00903e-05
29 *349:C1 *43:30 9.21598e-05
30 *378:D *43:30 3.2274e-05
31 *404:A *356:A2 7.80195e-05
32 *404:A *43:30 0
33 *42:8 *356:A2 0.000308633
*RES
1 *347:Y *43:30 25.7991 
2 *43:30 *356:A2 13.095 
3 *43:30 *350:A2 5.085 
*END

*D_NET *44 0.00262649
*CONN
*I *349:B1 I *D sky130_fd_sc_hd__o2111ai_1
*I *360:C1 I *D sky130_fd_sc_hd__o2111ai_1
*I *348:Y O *D sky130_fd_sc_hd__nor2_1
*CAP
1 *349:B1 0.000158636
2 *360:C1 0.000139662
3 *348:Y 0.000392192
4 *44:18 0.000690491
5 *349:B1 *308:B1 1.07797e-05
6 *349:B1 *389:A 0.00015486
7 *349:B1 *73:49 8.53113e-06
8 *349:B1 *73:63 0.000252229
9 *349:B1 *112:58 6.57123e-05
10 *360:C1 *354:C 0
11 *360:C1 *73:63 0.000193158
12 *44:18 *272:A 1.80654e-05
13 *44:18 *308:A1 7.05373e-05
14 *44:18 *348:A 5.90764e-05
15 *44:18 *348:B 0
16 *44:18 *107:30 0.000115464
17 *44:18 *112:12 7.7732e-05
18 *44:18 *112:58 0.000121639
19 *44:18 *135:35 4.11611e-05
20 *377:D *44:18 5.65627e-05
*RES
1 *348:Y *44:18 13.43 
2 *44:18 *360:C1 8 
3 *44:18 *349:B1 9.32 
*END

*D_NET *45 0.00392914
*CONN
*I *350:B1 I *D sky130_fd_sc_hd__o21ai_1
*I *349:Y O *D sky130_fd_sc_hd__o2111ai_1
*CAP
1 *350:B1 0.00111796
2 *349:Y 0.00111796
3 *350:B1 *307:C_N 2.56314e-05
4 *350:B1 *308:B1 0.000242826
5 *350:B1 *348:B 3.98752e-05
6 *350:B1 *352:A 8.99275e-05
7 *350:B1 *360:A2 8.52977e-05
8 *350:B1 *59:107 0.000340804
9 *350:B1 *59:115 6.91157e-06
10 *350:B1 *62:16 8.46717e-05
11 *350:B1 *73:63 0.00017111
12 *350:B1 *122:23 8.33581e-05
13 *350:B1 *135:52 5.20648e-05
14 *350:A1 *350:B1 4.7003e-05
15 *350:A2 *350:B1 0.000156762
16 *355:B1 *350:B1 0.000218045
17 *385:D *350:B1 4.89295e-05
*RES
1 *349:Y *350:B1 25.335 
*END

*D_NET *46 0.000961291
*CONN
*I *356:A1 I *D sky130_fd_sc_hd__o21ai_1
*I *351:Y O *D sky130_fd_sc_hd__inv_2
*CAP
1 *356:A1 0.000223508
2 *351:Y 0.000223508
3 *356:A1 *346:A 8.52883e-05
4 *356:A1 *356:B1 0.000246811
5 *356:A1 *135:26 8.64421e-05
6 *356:A2 *356:A1 2.7801e-05
7 *386:D *356:A1 4.77757e-05
8 *404:A *356:A1 2.01565e-05
*RES
1 *351:Y *356:A1 8.27 
*END

*D_NET *47 0.00160945
*CONN
*I *354:B I *D sky130_fd_sc_hd__and4_1
*I *352:X O *D sky130_fd_sc_hd__or2_1
*CAP
1 *354:B 0.000649159
2 *352:X 0.000649159
3 *354:B *306:B 2.69153e-05
4 *354:B *98:6 4.89362e-05
5 *354:B *98:17 8.64421e-05
6 *354:B *123:6 7.27298e-06
7 *354:B *135:26 7.14241e-05
8 *42:8 *354:B 7.01359e-05
*RES
1 *352:X *354:B 14.73 
*END

*D_NET *48 0.00132261
*CONN
*I *359:A I *D sky130_fd_sc_hd__and2_1
*I *358:B I *D sky130_fd_sc_hd__nor2_1
*I *354:D I *D sky130_fd_sc_hd__and4_1
*I *353:Y O *D sky130_fd_sc_hd__nand2_1
*CAP
1 *359:A 1.44914e-05
2 *358:B 2.09808e-05
3 *354:D 0.000179712
4 *353:Y 0.00011169
5 *48:23 5.16363e-05
6 *48:6 0.000307566
7 *354:D *356:B1 0.000220989
8 *354:D *360:A1 4.22401e-05
9 *359:A *124:18 4.89295e-05
10 *48:6 *356:B1 9.70988e-05
11 *48:6 *358:A 4.66108e-05
12 *48:6 *124:18 8.23457e-05
13 *48:23 *124:18 4.77757e-05
14 *377:D *48:6 5.05437e-05
*RES
1 *353:Y *48:6 4.465 
2 *48:6 *354:D 9.335 
3 *48:6 *48:23 0.45 
4 *48:23 *358:B 1.96 
5 *48:23 *359:A 2.05 
*END

*D_NET *49 0.000426436
*CONN
*I *355:D1 I *D sky130_fd_sc_hd__o2111ai_1
*I *354:X O *D sky130_fd_sc_hd__and4_1
*CAP
1 *355:D1 7.88403e-05
2 *354:X 7.88403e-05
3 *355:D1 *354:C 0.000110492
4 *355:D1 *360:A2 0.000110492
5 *355:D1 *98:17 4.77719e-05
*RES
1 *354:X *355:D1 9.03 
*END

*D_NET *50 0.00293947
*CONN
*I *356:B1 I *D sky130_fd_sc_hd__o21ai_1
*I *355:Y O *D sky130_fd_sc_hd__o2111ai_1
*CAP
1 *356:B1 0.000826884
2 *355:Y 0.000826884
3 *356:B1 *306:B 0.000159307
4 *356:B1 *346:A 0.000128436
5 *356:B1 *354:C 0.000149803
6 *356:B1 *358:A 7.74825e-05
7 *356:B1 *360:A2 9.84376e-06
8 *354:D *356:B1 0.000220989
9 *356:A1 *356:B1 0.000246811
10 *356:A2 *356:B1 0.000104922
11 *377:D *356:B1 4.56429e-06
12 *404:A *356:B1 8.64421e-05
13 *48:6 *356:B1 9.70988e-05
*RES
1 *355:Y *356:B1 22.53 
*END

*D_NET *51 0.000713225
*CONN
*I *361:A2_N I *D sky130_fd_sc_hd__o2bb2ai_1
*I *357:Y O *D sky130_fd_sc_hd__o211ai_2
*CAP
1 *361:A2_N 0.000230471
2 *357:Y 0.000230471
3 *361:A2_N *361:B1 0.000196101
4 *361:A2_N *361:B2 0
5 *361:A2_N *98:17 5.61809e-05
6 *361:A2_N *124:14 0
*RES
1 *357:Y *361:A2_N 12.03 
*END

*D_NET *52 0.00119594
*CONN
*I *360:A1 I *D sky130_fd_sc_hd__o2111ai_1
*I *358:Y O *D sky130_fd_sc_hd__nor2_1
*CAP
1 *360:A1 0.000300004
2 *358:Y 0.000300004
3 *360:A1 *360:A2 0.000283072
4 *360:A1 *59:115 2.68111e-05
5 *360:A1 *98:17 8.23457e-05
6 *360:A1 *124:18 0.000161467
7 *354:D *360:A1 4.22401e-05
*RES
1 *358:Y *360:A1 17.005 
*END

*D_NET *53 0.000984856
*CONN
*I *360:A2 I *D sky130_fd_sc_hd__o2111ai_1
*I *359:X O *D sky130_fd_sc_hd__and2_1
*CAP
1 *360:A2 0.000155631
2 *359:X 0.000155631
3 *360:A2 *354:C 3.13894e-05
4 *360:A2 *124:14 6.82013e-05
5 *350:B1 *360:A2 8.52977e-05
6 *355:B1 *360:A2 8.52977e-05
7 *355:D1 *360:A2 0.000110492
8 *356:B1 *360:A2 9.84376e-06
9 *360:A1 *360:A2 0.000283072
*RES
1 *359:X *360:A2 11.925 
*END

*D_NET *54 0.00139913
*CONN
*I *361:B1 I *D sky130_fd_sc_hd__o2bb2ai_1
*I *360:Y O *D sky130_fd_sc_hd__o2111ai_1
*CAP
1 *361:B1 0.000296679
2 *360:Y 0.000296679
3 *361:B1 *357:C1 4.77807e-05
4 *361:B1 *361:B2 0.000297899
5 *355:B1 *361:B1 5.18534e-05
6 *361:A2_N *361:B1 0.000196101
7 *405:A *361:B1 0.000164358
8 *40:12 *361:B1 4.77769e-05
*RES
1 *360:Y *361:B1 14.19 
*END

*D_NET *55 0.00119634
*CONN
*I *365:A I *D sky130_fd_sc_hd__nand4_4
*I *362:X O *D sky130_fd_sc_hd__and2b_1
*CAP
1 *365:A 0.000279678
2 *362:X 0.000279678
3 *365:A *275:A 3.64998e-06
4 *365:A *64:26 6.22282e-05
5 *365:A *66:24 9.97994e-05
6 *365:A *71:31 8.73389e-06
7 *365:A *72:12 0
8 *365:A *100:12 0.000462571
*RES
1 *362:X *365:A 13.365 
*END

*D_NET *56 0.00464636
*CONN
*I *326:A I *D sky130_fd_sc_hd__or2_1
*I *332:A1 I *D sky130_fd_sc_hd__o211a_1
*I *365:B I *D sky130_fd_sc_hd__nand4_4
*I *274:B I *D sky130_fd_sc_hd__nand3_2
*I *363:Y O *D sky130_fd_sc_hd__inv_2
*CAP
1 *326:A 5.02841e-05
2 *332:A1 0
3 *365:B 0.000183989
4 *274:B 0.000448913
5 *363:Y 0.000295172
6 *56:32 0.000984282
7 *56:20 0.000554921